%mem=15GB
%nprocshared=6
#p M062X/def2TZVP

using B3LYP/6-31G(d) to do opt and freq calc.

0 1
C	0.000010	1.518429	1.254759
H	0.349148	1.042070	2.175866
H	-1.085003	1.664723	1.342944
H	0.462302	2.511266	1.204222
C	0.342970	0.696651	-0.000006
H	1.431409	0.522493	-0.000015
C	-0.342970	-0.696651	-0.000006
H	-1.431409	-0.522493	-0.000015
C	0.000010	-1.518447	-1.254754
H	1.085024	-1.664732	-1.342928
H	-0.462273	-2.511288	-1.204204
H	-0.349127	-1.042109	-2.175873
C	-0.000010	1.518447	-1.254754
H	0.349127	1.042109	-2.175873
H	-1.085024	1.664732	-1.342928
H	0.462273	2.511288	-1.204204
C	-0.000010	-1.518429	1.254759
H	1.085003	-1.664723	1.342944
H	-0.349148	-1.042070	2.175866
H	-0.462302	-2.511266	1.204222





