%mem=15GB
%nprocshared=6
#p B3LYP/6-31G(d) opt=tight int=ultrafine freq

using B3LYP/6-31G(d) to do opt and freq calc.

0 1
C	-1.618029	0.989663	-0.000016
H	-1.593680	1.636362	-0.886074
H	-1.593654	1.636420	0.885999
H	-2.578313	0.459295	0.000016
C	-0.436353	-0.000500	0.000000
C	0.878585	0.823914	-0.000043
H	0.865717	1.486557	0.877429
H	0.865714	1.486474	-0.877578
C	2.193477	0.033878	-0.000004
H	2.289031	-0.605086	-0.884921
H	3.048487	0.719807	-0.000041
H	2.289033	-0.604995	0.884979
C	-0.528885	-0.884918	1.258718
H	0.262455	-1.642376	1.285366
H	-0.448502	-0.282752	2.172644
H	-1.489681	-1.413252	1.292150
C	-0.528920	-0.884999	-1.258660
H	-1.489722	-1.413324	-1.292037
H	-0.448550	-0.282892	-2.172626
H	0.262411	-1.642466	-1.285276





