%mem=15GB
%nprocshared=6
#p PM6 opt 

using PM6 to do opt and freq calc.

0 1
C    0.0261    4.131    1.2093
H    -0.1058    3.9702    2.3036
H    -0.8649    4.6661    0.8085
H    0.926    4.7668    1.0483
C    0.2085    2.7943    0.4949
H    0.3626    2.9898    -0.5918
H    1.1233    2.2998    0.8969
C    -0.9998    1.8688    0.6841
H    -1.908    2.3842    0.2952
H    -1.1414    1.6728    1.7726
C    -0.8206    0.532    -0.0503
H    0.1374    0.0686    0.2828
H    -0.7458    0.716    -1.1476
C    -1.9414    -0.4831    0.219
H    -2.0297    -0.6627    1.3155
H    -1.6551    -1.448    -0.2603
C    -3.3058    -0.0721    -0.3331
H    -3.2317    0.1633    -1.4191
H    -4.0269    -0.91    -0.1988
H    -3.6989    0.8163    0.2099





