%mem=15GB
%nprocshared=6
#p B3LYP/6-31G(d) opt=tight int=ultrafine

using B3LYP/6-31G(d) to do opt and freq calc.

0 1
C	-1.600812	-1.262176	-0.285792
H	-1.294303	-2.169778	0.244266
H	-1.156234	-1.301634	-1.286167
H	-2.687804	-1.301311	-0.410613
C	-1.174137	-0.000002	0.474342
H	-1.706705	-0.000012	1.461125
C	0.338707	-0.000057	0.782709
H	0.578223	-0.882219	1.407439
H	0.578268	0.882002	1.407562
C	1.235219	0.000003	-0.462205
H	1.007198	0.883830	-1.089441
H	1.007213	-0.883781	-1.089510
C	2.717250	0.000007	-0.091034
H	2.985195	-0.882760	0.500153
H	3.349015	-0.000205	-0.985963
H	2.985272	0.882989	0.499797
C	-1.600760	1.262221	-0.285741
H	-1.293955	2.169791	0.244206
H	-1.156415	1.301566	-1.286225
H	-2.687775	1.301549	-0.410305





