%mem=15GB
%nprocshared=6
#p M062X/def2TZVP

using B3LYP/6-31G(d) to do opt and freq calc.

0 2
C	2.156741	-1.096863	0.031323
H	1.908094	-2.154491	0.042363
H	3.204231	-0.825526	0.127373
C	1.124076	-0.070398	-0.312310
H	1.054585	-0.004425	-1.417474
C	-0.273825	-0.500717	0.191156
H	-0.267113	-0.511973	1.291026
H	-0.449140	-1.540412	-0.121952
C	-1.440067	0.362817	-0.307504
H	-1.412098	0.408609	-1.405936
H	-1.320501	1.395720	0.044260
C	-2.805210	-0.165940	0.145951
H	-2.874892	-0.195991	1.240348
H	-3.621560	0.466125	-0.222009
H	-2.979172	-1.184174	-0.223427
C	1.539005	1.323217	0.195447
H	0.848427	2.102499	-0.143008
H	1.565682	1.344189	1.291904
H	2.539132	1.587144	-0.167843





