%mem=15GB
%nprocshared=6
#p M062X/def2TZVP

using B3LYP/6-31G(d) to do opt and freq calc.

0 2
C	-1.552331	1.185924	0.040628
H	-1.092351	2.128359	-0.273913
H	-1.712493	1.236846	1.126153
H	-2.537718	1.115217	-0.434957
C	-0.677974	-0.022518	-0.327816
H	-0.533351	-0.016338	-1.419304
C	0.743448	0.085658	0.321646
H	0.588275	0.084774	1.412211
C	1.639806	-1.118430	-0.035542
H	1.764424	-1.201232	-1.123259
H	2.635923	-0.998872	0.403739
H	1.226005	-2.063873	0.328839
C	-1.399242	-1.325903	0.051188
H	-0.880042	-2.215745	-0.317725
H	-1.494134	-1.418932	1.141435
H	-2.411981	-1.340040	-0.369240
C	1.435876	1.360202	-0.053670
H	1.912033	1.455874	-1.026694
H	1.397910	2.244362	0.574123





