%mem=15GB
%nprocshared=6
#p M062X/def2TZVP

using B3LYP/6-31G(d) to do opt and freq calc.

0 2
C	2.105388	-1.026545	0.024912
H	1.877865	-2.020937	-0.377565
H	2.210996	-1.124415	1.113400
H	3.077998	-0.716466	-0.375475
C	1.007315	-0.012878	-0.330491
H	0.943159	0.041361	-1.428841
C	-0.360020	-0.494599	0.192017
H	-0.337972	-0.526131	1.291182
H	-0.516009	-1.531835	-0.138659
C	-1.567859	0.343991	-0.265121
H	-1.524257	0.439488	-1.368423
H	-1.486292	1.372171	0.112815
C	-2.879494	-0.235599	0.146794
H	-3.760208	0.389183	0.258258
H	-3.019554	-1.312395	0.188776
C	1.377517	1.384988	0.189179
H	0.651573	2.145818	-0.117248
H	1.426576	1.392313	1.286269
H	2.359040	1.695689	-0.188231





