%mem=15GB
%nprocshared=6
#p M062X/def2TZVP

using B3LYP/6-31G(d) to do opt and freq calc.

0 2
C	-1.953504	-0.893616	-0.517789
H	-1.307340	-1.695405	-0.892564
H	-2.135351	-0.197334	-1.344413
H	-2.915844	-1.338805	-0.237066
C	-1.308348	-0.171129	0.689474
H	-2.030878	0.575130	1.056905
H	-1.174347	-0.899274	1.501034
C	0.000000	0.504876	0.390959
C	1.308347	-0.171130	0.689474
H	1.174346	-0.899275	1.501035
H	2.030879	0.575128	1.056905
C	1.953502	-0.893618	-0.517789
H	2.135353	-0.197335	-1.344412
H	2.915840	-1.338811	-0.237065
H	1.307336	-1.695404	-0.892566
C	0.000002	1.758596	-0.431899
H	0.000022	1.561709	-1.519226
H	-0.888194	2.372894	-0.231590
H	0.888180	2.372911	-0.231561





