%mem=28GB
%nprocshared=12
#p b3lyp/cbsb7 opt freq

using ub3lyp/6-31G(d) to scan

0 1
C	-2.531560	-0.223903	-0.368469
H	-2.464851	-0.438845	-1.440946
H	-2.722300	0.850259	-0.261207
H	-3.408522	-0.753400	0.019908
C	-1.262921	-0.645275	0.369268
H	-1.373687	-0.443068	1.451689
H	-1.138316	-1.742352	0.279703
C	0.000003	0.064394	-0.169026
H	0.000014	-0.014629	-1.283886
C	1.262935	-0.645242	0.369295
H	1.138336	-1.742325	0.279794
H	1.373711	-0.442974	1.451703
C	2.531563	-0.223903	-0.368480
H	2.722255	0.850281	-0.261345
H	3.408544	-0.753315	0.019968
H	2.464873	-0.438976	-1.440932
C	-0.000017	1.550106	0.211009
H	-0.883542	2.060878	-0.186515
H	-0.000097	1.690544	1.296869
H	0.883572	2.060869	-0.186384





