%chk=E:\hetanjin\GithubFiles\DBGCWebapp\demoForLocal\python\Gjfs\banana_095.chk
# hf/3-21g geom=connectivity

Title Card Required

0 1
 C                 -5.98639466   -2.68707479    0.00000000
 H                 -5.45323091   -3.61477971    0.00000000
 H                 -7.05639466   -2.68707479    0.00000000
 C                 -5.31112035   -1.51209749    0.00000000
 H                 -5.84428410   -0.58439257   -0.00000000
 C                 -3.77112035   -1.51209749   -0.00000000
 H                 -3.41445400   -2.01819361   -0.87267166
 H                 -3.41445350   -2.01480529    0.87462771
 C                 -3.25778748   -0.06017414   -0.00281518
 H                 -3.61432229    0.44587474    0.86993762
 H                 -3.61458647    0.44258078   -0.87736191
 C                 -1.71778750   -0.06017458   -0.00304852
 H                 -1.36125354   -0.56613033   -0.87585567
 H                 -1.36098828   -0.56302326    0.87144420
 C                 -1.20445460    1.39174906   -0.00570778
 H                 -1.55952362    1.89398379   -0.88125690
 H                 -1.56271759    1.89831381    0.86603747
 C                  0.33554283    1.39175510   -0.00289224
 H                  0.69380503    0.88470174   -0.87435371
 H                  0.69061099    0.89001011    0.87293797
 C                  0.84887721    2.84367650   -0.00636438
 H                  0.49060720    3.35073171    0.86509280
 H                  0.49381626    3.34541918   -0.88219884
 C                  2.38887462    2.84368258   -0.00353655
 H                  2.74714377    2.33661776   -0.87498849
 H                  2.74393579    2.34194910    0.87230309
 C                  2.90220903    4.29560394   -0.00702369
 H                  2.54394908    4.80266462    0.86443444
 H                  2.54713801    4.79734115   -0.88285720
 C                  4.44220647    4.29560996   -0.00421360
 H                  4.80046557    3.78854919   -0.87567203
 H                  4.79727772    3.79387240    0.87161961
 C                  4.95554088    5.74753132   -0.00769989
 H                  4.59728523    6.25458998    0.86376119
 H                  4.60046554    6.24927058   -0.88353048
 C                  6.49553833    5.74753732   -0.00489741
 H                  6.85379313    5.24047959   -0.87635937
 H                  6.85061390    5.24579670    0.87093230
 C                  7.00887273    7.19945869   -0.00838116
 H                  6.65061996    7.70651481    0.86308257
 H                  6.65379452    7.70120050   -0.88420912
 C                  8.54887019    7.19946467   -0.00558375
 H                  8.90712212    6.69240896   -0.87704807
 H                  8.90553760    8.20826718   -0.00800311
 H                  8.90394864    6.69772201    0.87024363

 1 2 1.0 3 1.0 4 2.0
 2
 3
 4 5 1.0 6 1.0
 5
 6 7 1.0 8 1.0 9 1.0
 7
 8
 9 10 1.0 11 1.0 12 1.0
 10
 11
 12 13 1.0 14 1.0 15 1.0
 13
 14
 15 16 1.0 17 1.0 18 1.0
 16
 17
 18 19 1.0 20 1.0 21 1.0
 19
 20
 21 22 1.0 23 1.0 24 1.0
 22
 23
 24 25 1.0 26 1.0 27 1.0
 25
 26
 27 28 1.0 29 1.0 30 1.0
 28
 29
 30 31 1.0 32 1.0 33 1.0
 31
 32
 33 34 1.0 35 1.0 36 1.0
 34
 35
 36 37 1.0 38 1.0 39 1.0
 37
 38
 39 40 1.0 41 1.0 42 1.0
 40
 41
 42 43 1.0 44 1.0 45 1.0
 43
 44
 45

