%chk=E:\hetanjin\GithubFiles\DBGCWebapp\demoForLocal\python\Gjfs\banana_044.chk
# hf/3-21g geom=connectivity

Title Card Required

0 1
 C                 -1.46258506   -0.61224489    0.00000000
 H                 -1.10591222   -0.10784670   -0.87365150
 C                 -0.94924284    0.11371138    1.25740497
 H                 -1.30429940    1.12308440    1.25642758
 H                 -1.30751180   -0.38955661    2.13105517
 C                  0.59075456    0.11125448    1.25881307
 H                  0.94902289    0.61419577    0.38497449
 H                  0.94581043   -0.89811834    1.26016721
 C                  1.10409777    0.83768028    2.51594643
 H                  0.74576097    0.33478667    3.38978438
 H                  2.17409581    0.83590145    2.51696632
 H                  0.74910991    1.84707697    2.51455102
 C                 -0.94926934   -2.06417704    0.00000000
 H                 -1.59386208   -2.67036636   -0.60161011
 H                  0.04256888   -2.09182298   -0.40049051
 C                 -0.93572773   -2.60385972    1.44227571
 H                 -1.14022188   -3.65408707    1.43204595
 H                  0.02613595   -2.43201392    1.87838039
 H                 -1.68368850   -2.10045229    2.01850106
 C                 -3.00258506   -0.61222591    0.00000000
 H                 -3.35925950   -1.26921690   -0.76553653
 H                 -3.35925604   -0.94669797    0.95174275
 C                 -3.51590035    0.81475855   -0.26799767
 H                 -4.49312540    0.76679364   -0.70116112
 H                 -3.56044422    1.35671683    0.65352123
 H                 -2.85078539    1.31224099   -0.94255923

 1 2 1.0 3 1.0 13 1.0 20 1.0
 2
 3 4 1.0 5 1.0 6 1.0
 4
 5
 6 7 1.0 8 1.0 9 1.0
 7
 8
 9 10 1.0 11 1.0 12 1.0
 10
 11
 12
 13 14 1.0 15 1.0 16 1.0
 14
 15
 16 17 1.0 18 1.0 19 1.0
 17
 18
 19
 20 21 1.0 22 1.0 23 1.0
 21
 22
 23 24 1.0 25 1.0 26 1.0
 24
 25
 26

