%chk=E:\hetanjin\GithubFiles\DBGCWebapp\demoForLocal\python\Gjfs\banana_008.chk
# hf/3-21g geom=connectivity

Title Card Required

0 1
 C                 -2.17687079   -0.23809523    0.00000000
 H                 -1.64370704   -1.16580015    0.00000000
 C                 -1.50159648    0.93688206    0.00000000
 H                 -2.03476022    1.86458698    0.00000000
 C                 -3.71687079   -0.23809523    0.00000000
 H                 -4.07353713    0.26632454   -0.87364169
 H                 -4.07353713   -1.24690102   -0.00001924
 H                 -4.07353764    0.26629080    0.87366097
 C                  0.03840352    0.93688206    0.00000000
 H                  0.39506987    0.43078594   -0.87267166
 H                  0.39507038    0.43417427    0.87462771
 C                  0.55173640    2.38880542   -0.00281518
 H                  0.19490975    2.89495712    0.86975871
 H                  1.62173638    2.38880580   -0.00261989
 H                  0.19522924    2.89145681   -0.87754041

 1 2 1.0 3 2.0 5 1.0
 2
 3 4 1.0 9 1.0
 4
 5 6 1.0 7 1.0 8 1.0
 6
 7
 8
 9 10 1.0 11 1.0 12 1.0
 10
 11
 12 13 1.0 14 1.0 15 1.0
 13
 14
 15

