%chk=E:\hetanjin\GithubFiles\DBGCWebapp\demoForLocal\python\Gjfs\banana_071.chk
# hf/3-21g geom=connectivity

Title Card Required

0 1
 C                 -3.63800768   -0.78193412   -0.10550641
 C                 -5.17800768   -0.78191515   -0.10550641
 H                 -5.53466159    0.22689502   -0.10531084
 H                 -5.53468024   -1.28614449   -0.97925549
 H                 -5.53468075   -1.28648280    0.76804714
 C                 -3.12469196   -2.23386627   -0.10550641
 H                 -3.48139436   -2.73827491   -0.97913981
 H                 -2.05469196   -2.23387892   -0.10554222
 H                 -3.48133531   -2.73825457    0.76816284
 C                 -3.12466546   -0.05597785    1.15189856
 H                 -2.05466727   -0.05768492    1.15287691
 H                 -3.47972202    0.95339517    1.15092117
 H                 -3.48293442   -0.55924585    2.02554876
 C                 -3.12466546   -0.05597785   -1.36291138
 H                 -3.48120193   -0.56047335   -2.23656236
 H                 -3.48145630    0.95278391   -1.36299555
 C                 -1.58466547   -0.05578821   -1.36279046
 H                 -1.22787490   -1.06455007   -1.36275636
 H                 -1.22812934    0.44866366   -0.48911415
 C                 -1.07132327    0.67023079   -2.62015921
 C                  0.46867672    0.67040036   -2.62004987
 H                  0.82545415   -0.33836615   -2.62002358
 H                  0.82534955    1.17484192   -3.49367635
 H                  0.82522601    1.17484316   -1.74637369
 C                 -1.58481723    2.12209991   -2.62019594
 H                 -0.99694604    2.70819023   -3.29532971
 H                 -2.60828975    2.13851569   -2.93186007
 H                 -1.50588845    2.52839693   -1.63348779
 C                 -1.58448733   -0.05578925   -3.87760008
 H                 -1.02893523    0.27295012   -4.73094193
 H                 -1.45967472   -1.11148325   -3.75581346
 H                 -2.62140097    0.16672312   -4.01972095

 1 2 1.0 6 1.0 10 1.0 14 1.0
 2 3 1.0 4 1.0 5 1.0
 3
 4
 5
 6 7 1.0 8 1.0 9 1.0
 7
 8
 9
 10 11 1.0 12 1.0 13 1.0
 11
 12
 13
 14 15 1.0 16 1.0 17 1.0
 15
 16
 17 18 1.0 19 1.0 20 1.0
 18
 19
 20 21 1.0 25 1.0 29 1.0
 21 22 1.0 23 1.0 24 1.0
 22
 23
 24
 25 26 1.0 27 1.0 28 1.0
 26
 27
 28
 29 30 1.0 31 1.0 32 1.0
 30
 31
 32

