%chk=E:\hetanjin\GithubFiles\DBGCWebapp\demoForLocal\python\Gjfs\banana_065.chk
# hf/3-21g geom=connectivity

Title Card Required

0 1
 C                 -5.06802730    0.64625849    0.00000000
 H                 -4.71135446    1.15065668    0.87365150
 H                 -4.71135446    1.15065668   -0.87365150
 H                 -6.13802730    0.64627168    0.00000000
 C                 -4.55471158   -0.80567366    0.00000000
 H                 -4.91138487   -1.31007254   -0.87365092
 C                 -3.01471158   -0.80569186   -0.00000123
 H                 -2.65804000   -0.30298907   -0.87462989
 H                 -2.65803805   -0.29959917    0.87266948
 C                 -2.50139587   -2.25762128    0.00281556
 H                 -2.85843545   -2.76384265   -0.86963081
 C                 -0.96139600   -2.25764078    0.00216962
 H                 -0.60508970   -1.75508537   -0.87269259
 C                 -0.44808027   -3.70957014    0.00501496
 H                 -0.80512287   -4.21580973   -0.86741960
 H                  0.62191963   -3.70958370    0.00456245
 H                 -0.80438331   -4.21212464    0.87987902
 C                 -0.44752718   -1.52903493    1.25782577
 H                 -0.47635128   -0.47208267    1.09374930
 H                 -1.06816235   -1.77733109    2.09332622
 H                  0.55897070   -1.83145214    1.45883782
 C                 -3.01421021   -2.98095031    1.26194882
 H                 -3.01154514   -2.30225129    2.08914924
 H                 -4.01074584   -3.33114835    1.09113290
 H                 -2.37664555   -3.81202387    1.48041627
 C                 -5.06805325   -1.53162974    1.25740530
 H                 -5.15404276   -2.57870923    1.05459914
 H                 -4.38020287   -1.37963841    2.06279992
 H                 -6.02658648   -1.14093939    1.52846822

 1 2 1.0 3 1.0 4 1.0 5 1.0
 2
 3
 4
 5 6 1.0 7 1.0 26 1.0
 6
 7 8 1.0 9 1.0 10 1.0
 8
 9
 10 11 1.0 12 1.0 22 1.0
 11
 12 13 1.0 14 1.0 18 1.0
 13
 14 15 1.0 16 1.0 17 1.0
 15
 16
 17
 18 19 1.0 20 1.0 21 1.0
 19
 20
 21
 22 23 1.0 24 1.0 25 1.0
 23
 24
 25
 26 27 1.0 28 1.0 29 1.0
 27
 28
 29

