%chk=E:\hetanjin\GithubFiles\DBGCWebapp\demoForLocal\python\Gjfs\banana_077.chk
# hf/3-21g geom=connectivity

Title Card Required

0 1
 C                 -4.69387763   -1.56462583    0.00000000
 H                 -4.33722321   -2.57343583    0.00000000
 H                 -4.33720479   -1.06022764   -0.87365150
 H                 -5.76387763   -1.56461264    0.00000000
 C                 -4.18053541   -0.83866955    1.25740497
 H                 -4.53718861    0.17014088    1.25740422
 H                 -4.53720954   -1.34306719    2.13105626
 C                 -2.64053541   -0.83869092    1.25740586
 H                 -2.28386156   -0.33446164    0.38365728
 H                 -2.28388256   -1.84750146    1.25760068
 C                 -2.12719319   -0.11249261    2.51467106
 H                 -2.48390362   -0.61669693    3.38841912
 H                 -2.48381009    0.89633064    2.51445450
 C                 -0.58719319   -0.11256851    2.51470345
 H                 -0.23048362    0.39163529    1.64095475
 H                 -0.23057606   -1.12139168    2.51492040
 C                 -0.07385097    0.61363011    3.77196847
 H                 -0.43055996    0.10942499    4.64571665
 H                 -0.43046931    1.62245285    3.77175254
 C                  1.46614903    0.61355640    3.77199959
 H                  1.82285717    1.11776275    2.89825177
 H                  1.82276759   -0.39526625    3.77221390
 C                  1.97949125    1.33975283    5.02926588
 H                  1.62122193    0.83665143    5.90301188
 H                  1.62443505    2.34912577    5.02809610
 C                  3.51948865    1.33729652    5.03067425
 H                  3.87775662    1.83993453    4.15666104
 H                  3.87454459    0.32792426    5.03237858
 C                  4.03283228    2.06415862    6.28755524
 H                  3.67456010    1.56152270    7.16156792
 H                  3.67777994    3.07353215    6.28584900
 C                  5.57282967    2.06169718    6.28896658
 H                  5.93110099    2.56431960    5.41494578
 H                  5.92950352    2.56673793    7.16224638
 H                  5.92788223    1.05232375    6.29068820

 1 2 1.0 3 1.0 4 1.0 5 1.0
 2
 3
 4
 5 6 1.0 7 1.0 8 1.0
 6
 7
 8 9 1.0 10 1.0 11 1.0
 9
 10
 11 12 1.0 13 1.0 14 1.0
 12
 13
 14 15 1.0 16 1.0 17 1.0
 15
 16
 17 18 1.0 19 1.0 20 1.0
 18
 19
 20 21 1.0 22 1.0 23 1.0
 21
 22
 23 24 1.0 25 1.0 26 1.0
 24
 25
 26 27 1.0 28 1.0 29 1.0
 27
 28
 29 30 1.0 31 1.0 32 1.0
 30
 31
 32 33 1.0 34 1.0 35 1.0
 33
 34
 35

