%chk=E:\hetanjin\GithubFiles\DBGCWebapp\demoForLocal\python\Gjfs\banana_025.chk
# hf/3-21g geom=connectivity

Title Card Required

0 1
 C                 -2.82312930   -0.57823128    0.00000000
 H                 -2.46647488   -1.58704129    0.00000000
 H                 -2.46645646   -0.07383309   -0.87365150
 H                 -3.89312930   -0.57821810    0.00000000
 C                 -2.30978708    0.14772499    1.25740497
 H                 -2.66484364    1.15709800    1.25642758
 H                 -2.66805604   -0.35554301    2.13105517
 C                 -0.76978969    0.14526809    1.25881307
 H                 -0.41152135    0.64820938    0.38497449
 C                 -0.25644647    0.87169389    2.51594643
 H                 -0.61478328    0.36880028    3.38978438
 H                 -0.61143434    1.88109057    2.51455102
 C                  1.28355070    0.86913370    2.51741431
 H                  1.64188665    1.37201972    1.64357164
 H                  1.64022425    1.37386540    3.39087288
 H                  1.63853879   -0.14026290    2.51881828
 C                 -0.25877469   -1.30747410    1.26076201
 H                 -0.61694868   -1.81038183    2.13465858
 H                 -0.61554323   -1.81223157    0.38735712
 H                  0.81122360   -1.30918129    1.26162448

 1 2 1.0 3 1.0 4 1.0 5 1.0
 2
 3
 4
 5 6 1.0 7 1.0 8 1.0
 6
 7
 8 9 1.0 10 1.0 17 1.0
 9
 10 11 1.0 12 1.0 13 1.0
 11
 12
 13 14 1.0 15 1.0 16 1.0
 14
 15
 16
 17 18 1.0 19 1.0 20 1.0
 18
 19
 20

