# hf/3-21g 

Title Card Required

0 1
 C                 -0.68027212   -0.34013605    0.00000000
 H                 -0.32361770   -1.34894605    0.00000000
 H                 -0.32359928    0.16426214   -0.87365150
 H                 -1.75027212   -0.34012287    0.00000000
 C                 -0.16692990    0.38582022    1.25740497
 H                 -0.52198625    1.39519331    1.25642745
 H                 -0.52519901   -0.11744821    2.13105486
 C                  1.37306749    0.38336387    1.25881364
 H                  1.73133598    0.88630575    0.38497547
 H                  1.72974052    0.88808796    2.13227684
 H                  1.72812373   -0.62600882    1.26016738

 
 
 