%chk=E:\hetanjin\GithubFiles\DBGCWebapp\demoForLocal\python\Gjfs\banana_012.chk
# hf/3-21g geom=connectivity

Title Card Required

0 1
 C                 -4.18367354   -0.61219242   -0.00801404
 H                 -3.82701912   -1.62100243   -0.00801404
 H                 -3.82700070   -0.10779423   -0.88166554
 H                 -5.25367354   -0.61217924   -0.00801404
 C                 -3.67033132    0.11376385    1.24939093
 H                 -4.02538767    1.12313694    1.24841341
 H                 -4.02860043   -0.38950458    2.12304082
 C                 -2.13033393    0.11130750    1.25079961
 H                 -1.77206544    0.61424938    0.37696143
 H                 -1.77527769   -0.89806520    1.25215334
 C                 -1.61699144    0.83773281    2.50793355
 H                 -1.97532825    0.33483851    3.38177109
 H                 -1.97197982    1.84712932    2.50653863
 C                 -0.07699427    0.83517340    2.50940187
 H                  0.28134168    1.33805996    1.63555951
 H                  0.27967877    1.33990493    3.38286076
 H                  0.27799433   -0.17422301    2.51080553

 1 2 1.0 3 1.0 4 1.0 5 1.0
 2
 3
 4
 5 6 1.0 7 1.0 8 1.0
 6
 7
 8 9 1.0 10 1.0 11 1.0
 9
 10
 11 12 1.0 13 1.0 14 1.0
 12
 13
 14 15 1.0 16 1.0 17 1.0
 15
 16
 17

