%chk=E:\hetanjin\GithubFiles\DBGCWebapp\demoForLocal\python\Gjfs\banana_011.chk
# hf/3-21g geom=connectivity

Title Card Required

0 1
 C                 -1.87058802   -0.40780775   -0.02982793
 H                 -1.33742427   -1.33551267   -0.02982793
 C                 -1.19531371    0.76716954   -0.02982793
 C                 -3.41058802   -0.40780775   -0.02982793
 H                 -3.76725437    0.09828837   -0.90249960
 H                 -3.76725437   -1.41661164   -0.03178394
 H                 -3.76725488    0.09490004    0.84479978
 C                 -1.96267088    2.10237102   -0.02982793
 H                 -2.57789884    2.16016499    0.84370193
 H                 -1.26574331    2.91427736   -0.02958509
 H                 -2.57753404    2.16037523   -0.90360068
 C                  0.34468629    0.76716954   -0.02982793
 H                  0.70135264    1.45063418   -0.77182874
 H                  0.70135264    1.06802853    0.93307029
 H                  0.70135314   -0.21715412   -0.25072535

 1 2 1.0 3 2.0 4 1.0
 2
 3 8 1.0 12 1.0
 4 5 1.0 6 1.0 7 1.0
 5
 6
 7
 8 9 1.0 10 1.0 11 1.0
 9
 10
 11
 12 13 1.0 14 1.0 15 1.0
 13
 14
 15

