%chk=E:\hetanjin\GithubFiles\DBGCWebapp\demoForLocal\python\Gjfs\banana_079.chk
# hf/3-21g geom=connectivity

Title Card Required

0 1
 C                 -6.56462596   -1.97278909    0.00000000
 H                 -6.20797154   -2.98159909    0.00000000
 H                 -6.20795312   -1.46839090   -0.87365150
 H                 -7.63462596   -1.97277590    0.00000000
 C                 -6.05128375   -1.24683281    1.25740497
 H                 -6.40792257   -0.23801729    1.25739542
 H                 -6.40797225   -1.75122029    2.13105626
 C                 -4.51128375   -1.24687613    1.25741853
 H                 -4.15459555   -0.74416749    0.38280001
 H                 -4.15464528   -2.25568989    1.25936524
 C                 -3.99794145   -0.51850651    2.51342705
 H                 -4.35499108   -1.02096036    3.38804450
 H                 -4.35421899    0.49043433    2.51125941
 C                 -2.45794160   -0.51909973    2.51375957
 H                 -2.10089282   -0.01666223    1.63913237
 H                 -2.10166383   -1.52804045    2.51594584
 C                 -1.94459929    0.20929292    3.76975472
 H                 -2.30165179   -0.29314284    4.64438138
 H                 -2.30087394    1.21823474    3.76756681
 C                 -0.40459944    0.20869531    3.77008978
 H                 -0.04754778    0.71113689    2.89546611
 H                 -0.04832455   -0.80024644    3.77227077
 C                  0.10874287    0.93707918    5.02609003
 H                 -0.24830820    0.43463628    5.90071318
 H                 -0.24753323    1.94602050    5.02391007
 C                  1.64874272    0.93648376    5.02642382
 H                  2.00579294    1.43892941    4.15180190
 H                  2.00501904   -0.07245748    5.02860041
 C                  2.16208502    1.66486326    6.28242661
 H                  1.80503539    1.16241629    7.15704801
 H                  1.80580748    2.67380408    6.28025104
 C                  3.70208487    1.66427003    6.28275913
 H                  4.05913365    2.16671822    5.40813808
 H                  4.05836264    0.65532929    6.28493308
 C                  4.21542717    2.39264734    7.53876318
 H                  3.85837898    1.89019784    8.41338372
 H                  3.85914820    3.40158766    7.53659025
 C                  5.75542702    2.39205631    7.53909443
 H                  6.11247437    2.89450703    6.66447425
 H                  6.11209992    2.89813513    8.41177345
 H                  6.11170623    1.38311607    7.54126575

 1 2 1.0 3 1.0 4 1.0 5 1.0
 2
 3
 4
 5 6 1.0 7 1.0 8 1.0
 6
 7
 8 9 1.0 10 1.0 11 1.0
 9
 10
 11 12 1.0 13 1.0 14 1.0
 12
 13
 14 15 1.0 16 1.0 17 1.0
 15
 16
 17 18 1.0 19 1.0 20 1.0
 18
 19
 20 21 1.0 22 1.0 23 1.0
 21
 22
 23 24 1.0 25 1.0 26 1.0
 24
 25
 26 27 1.0 28 1.0 29 1.0
 27
 28
 29 30 1.0 31 1.0 32 1.0
 30
 31
 32 33 1.0 34 1.0 35 1.0
 33
 34
 35 36 1.0 37 1.0 38 1.0
 36
 37
 38 39 1.0 40 1.0 41 1.0
 39
 40
 41

