%chk=E:\hetanjin\GithubFiles\DBGCWebapp\demoForLocal\python\Gjfs\banana_043.chk
# hf/3-21g geom=connectivity

Title Card Required

0 1
 C                 -3.16326536   -1.02040815    0.00000000
 H                 -2.80661094   -2.02921815    0.00000000
 H                 -2.80659252   -0.51600996   -0.87365150
 H                 -4.23326536   -1.02039496    0.00000000
 C                 -2.64992314   -0.29445187    1.25740497
 H                 -3.00497970    0.71492114    1.25642758
 H                 -3.00819210   -0.79771987    2.13105517
 C                 -1.10992575   -0.29690878    1.25881307
 H                 -0.75165741    0.20603251    0.38497449
 C                 -0.59658253    0.42951702    2.51594643
 H                 -0.95157040    1.43891371    2.51455102
 C                  0.94341464    0.42695684    2.51741431
 H                  1.30175059    0.92984285    1.64357164
 H                  1.29840273   -0.58243976    2.51881828
 C                  1.45675788    1.15339312    3.77454161
 H                  1.09841964    0.65050783    4.64838375
 H                  2.52675591    1.15161276    3.77556238
 H                  1.10177147    2.16279030    3.77313689
 C                 -0.59891075   -1.74965097    1.26076201
 H                  0.46865318   -1.75231183    1.18864984
 H                 -0.89624980   -2.23111355    2.16888275
 H                 -1.01407994   -2.27489993    0.42610755
 C                 -1.11231962   -0.29427378    3.77361974
 H                 -0.52840764   -1.17474381    3.94308754
 H                 -1.02970271    0.35664127    4.61883216
 H                 -2.13718519   -0.56761220    3.63277707

 1 2 1.0 3 1.0 4 1.0 5 1.0
 2
 3
 4
 5 6 1.0 7 1.0 8 1.0
 6
 7
 8 9 1.0 10 1.0 19 1.0
 9
 10 11 1.0 12 1.0 23 1.0
 11
 12 13 1.0 14 1.0 15 1.0
 13
 14
 15 16 1.0 17 1.0 18 1.0
 16
 17
 18
 19 20 1.0 21 1.0 22 1.0
 20
 21
 22
 23 24 1.0 25 1.0 26 1.0
 24
 25
 26

