%chk=E:\hetanjin\GithubFiles\DBGCWebapp\demoForLocal\python\Gjfs\banana_055.chk
# hf/3-21g geom=connectivity

Title Card Required

0 1
 C                 -2.24489800    1.02040815    0.00000000
 H                 -1.88822516    1.52480634    0.87365150
 H                 -1.88822516    1.52480634   -0.87365150
 H                 -3.31489800    1.02042133    0.00000000
 C                 -1.73158228   -0.43152400    0.00000000
 H                 -2.08825474   -0.93592206    0.87365174
 H                 -2.08825557   -0.93592289   -0.87365092
 C                 -0.19158228   -0.43154221   -0.00000123
 H                  0.16508932    0.07268633   -0.87375117
 H                  0.16509124    0.07302662    0.87355146
 C                  0.32173343   -1.88347433    0.00028147
 H                 -0.03539736   -2.38834889   -0.87290767
 C                  1.86173318   -1.88337318   -0.00059453
 H                  2.21786875   -1.38134549   -0.87582916
 H                  2.21886286   -1.37655200    0.87146664
 C                  2.37516360   -3.33526008    0.00309693
 H                  2.01756217   -3.84224705   -0.86867450
 H                  2.01949964   -3.83711990    0.87861956
 C                  3.91516265   -3.33516129    0.00138953
 H                  4.27276322   -2.82816627    0.87315663
 H                  4.27189678   -4.34393983    0.00396301
 H                  4.27082684   -2.83330912   -0.87413739
 C                 -0.19083665   -2.60882517    1.25835066
 H                  0.16425143   -3.61818733    1.25766072
 H                  0.16793648   -2.10511347    2.13153813
 H                 -1.26083412   -2.60715201    1.25996574

 1 2 1.0 3 1.0 4 1.0 5 1.0
 2
 3
 4
 5 6 1.0 7 1.0 8 1.0
 6
 7
 8 9 1.0 10 1.0 11 1.0
 9
 10
 11 12 1.0 13 1.0 23 1.0
 12
 13 14 1.0 15 1.0 16 1.0
 14
 15
 16 17 1.0 18 1.0 19 1.0
 17
 18
 19 20 1.0 21 1.0 22 1.0
 20
 21
 22
 23 24 1.0 25 1.0 26 1.0
 24
 25
 26

