# hf/3-21g geom=connectivity

Title Card Required

0 1
 C                 -0.68027212   -0.34013605    0.00000000
 H                 -0.32361770   -1.34894605    0.00000000
 H                 -0.32359928    0.16426214   -0.87365150
 H                 -1.75027212   -0.34012287    0.00000000
 C                 -0.16692990    0.38582022    1.25740497
 H                 -0.52198625    1.39519331    1.25642745
 H                 -0.52519901   -0.11744821    2.13105486
 C                  1.37306749    0.38336387    1.25881364
 H                  1.73133598    0.88630575    0.38497547
 H                  1.72812373   -0.62600882    1.26016738
 C                  1.88640998    1.10978919    2.51594758
 H                  1.52807317    0.60689489    3.38978513
 H                  2.95640801    1.10801090    2.51696778
 H                  1.53142160    2.11918570    2.51455265

 1 2 1.0 3 1.0 4 1.0 5 1.0
 2
 3
 4
 5 6 1.0 7 1.0 8 1.0
 6
 7
 8 9 1.0 10 1.0 11 1.0
 9
 10
 11 12 1.0 13 1.0 14 1.0
 12
 13
 14

