%chk=E:\hetanjin\GithubFiles\DBGCWebapp\demoForLocal\python\Gjfs\banana_017.chk
# hf/3-21g geom=connectivity

Title Card Required

0 1
 C                  0.10204082   -0.30612244    0.00000000
 C                  0.77731513    0.86885485    0.00000000
 H                  0.24415138    1.79655977   -0.00000000
 H                  1.84731513    0.86885485    0.00000000
 C                 -1.43795918   -0.30612244    0.00000000
 H                 -1.79462553    0.19844981   -0.87355364
 C                  0.86939799   -1.64132392    0.00000000
 H                  0.60911813   -2.20228330    0.87320042
 H                  0.61047189   -2.20150528   -0.87410189
 H                  1.92176751   -1.44788769    0.00090148
 C                 -1.95129279    0.41959686    1.25754527
 H                 -1.89298823    1.47743982    1.10764912
 H                 -2.96804409    0.14075257    1.44019973
 H                 -1.34951271    0.14483150    2.09853560
 C                 -1.95129206   -1.75804850   -0.00028110
 H                 -3.02125206   -1.75806085   -0.00953293
 H                 -1.58709077   -2.26494647   -0.86936790
 H                 -1.60219952   -2.25994354    0.87786227

 1 2 2.0 5 1.0 7 1.0
 2 3 1.0 4 1.0
 3
 4
 5 6 1.0 11 1.0 15 1.0
 6
 7 8 1.0 9 1.0 10 1.0
 8
 9
 10
 11 12 1.0 13 1.0 14 1.0
 12
 13
 14
 15 16 1.0 17 1.0 18 1.0
 16
 17
 18

