%chk=E:\hetanjin\GithubFiles\DBGCWebapp\demoForLocal\python\Gjfs\banana_047.chk
# hf/3-21g geom=connectivity

Title Card Required

0 1
 C                 -1.32653064   -0.51020407    0.00000000
 C                 -2.86653064   -0.51018510    0.00000000
 H                 -3.22318455    0.49862506    0.00019557
 H                 -3.22320320   -1.01441445   -0.87374908
 H                 -3.22320371   -1.01475275    0.87355355
 C                 -0.81321492   -1.96213623    0.00000000
 H                 -1.16993313   -2.46655046   -0.87362372
 H                  0.25678508   -1.96214887   -0.00005518
 H                 -1.16984245   -2.46651894    0.87367894
 C                 -0.81318842    0.21575220    1.25740497
 H                 -1.16824498    1.22512521    1.25642758
 H                 -1.17145738   -0.28751580    2.13105517
 C                 -0.81318842    0.21575220   -1.25740497
 H                  0.25681157    0.21590836   -1.25730687
 H                 -1.16970189   -0.28875957   -2.13105594
 H                 -1.17000226    1.22450582   -1.25750322
 C                  0.72680898    0.21329530    1.25881307
 H                  1.08185959   -0.79605495    1.26596513
 C                  1.24016754    0.94693155    2.51174596
 H                  0.88081029    0.44979908    3.38845668
 H                  2.31016242    0.94406764    2.51340304
 H                  0.88621393    1.95666202    2.50392208
 C                  1.24243975    0.92991178   -0.00300535
 H                  1.41215630    0.21107411   -0.77719442
 H                  0.51464152    1.64234540   -0.33110301
 H                  2.15878427    1.43422449    0.22256377

 1 2 1.0 6 1.0 10 1.0 13 1.0
 2 3 1.0 4 1.0 5 1.0
 3
 4
 5
 6 7 1.0 8 1.0 9 1.0
 7
 8
 9
 10 11 1.0 12 1.0 17 1.0
 11
 12
 13 14 1.0 15 1.0 16 1.0
 14
 15
 16
 17 18 1.0 19 1.0 23 1.0
 18
 19 20 1.0 21 1.0 22 1.0
 20
 21
 22
 23 24 1.0 25 1.0 26 1.0
 24
 25
 26

