%chk=E:\hetanjin\GithubFiles\DBGCWebapp\demoForLocal\python\Gjfs\banana_081.chk
# hf/3-21g geom=connectivity

Title Card Required

0 1
 C                 -6.12192443   -1.66666664   -0.08014038
 H                 -5.76527001   -2.67547664   -0.08014038
 H                 -5.76525159   -1.16226845   -0.95379188
 H                 -7.19192443   -1.66665346   -0.08014038
 C                 -5.60858222   -0.94071037    1.17726459
 H                 -5.96507727    0.06815596    1.17716701
 H                 -5.96541447   -1.44499618    2.05091587
 C                 -4.06858224   -0.94097314    1.17740487
 H                 -3.71175027   -0.43671995    0.30373464
 H                 -3.71208754   -1.94983958    1.17753979
 C                 -3.55524002   -0.21497016    2.43478287
 H                 -3.91207838   -0.71921973    3.30845257
 H                 -3.91172895    0.79389833    2.43464469
 C                 -2.01524005   -0.21524138    2.43492803
 H                 -1.65840253    0.28900766    1.56125767
 H                 -1.65875088   -1.22410979    2.43506660
 C                 -1.50189782    0.51076191    3.69230584
 H                 -1.85873475    0.00651155    4.56597567
 H                 -1.85838819    1.51962989    3.69216829
 C                  0.03810215    0.51049288    3.69244973
 H                  0.39493823    1.01474447    2.81878026
 H                  0.39459276   -0.49837502    3.69258567
 C                  0.55144438    1.23649398    4.94982882
 H                  0.19460889    0.73224108    5.82349777
 H                  0.19495257    2.24536145    4.94969391
 C                  2.09144435    1.23622714    4.94997144
 H                  2.44827899    1.74048127    4.07630285
 H                  2.44793639    0.22735976    4.95010474
 C                  2.60478658    1.96222605    6.20735179
 H                  2.24795253    1.45797060    7.08101987
 H                  2.24829333    2.97109301    6.20721952
 C                  4.14478655    1.96196141    6.20749315
 H                  4.50161975    2.46621655    5.33382456
 H                  4.50128003    0.95309453    6.20762556
 C                  4.65812878    2.68796032    7.46487350
 H                  4.30129616    2.18370385    8.33854157
 H                  4.30163409    3.69682677    7.46474211
 C                  6.19812875    2.68769787    7.46501359
 H                  6.55496052    3.19195556    6.59134588
 H                  6.55462367    1.67883150    7.46514336
 C                  6.71147098    3.41369458    8.72239521
 H                  6.35463980    2.90943558    9.59606240
 H                  7.78147096    3.41351376    8.72249166
 H                  6.35497485    4.42256053    8.72226646

 1 2 1.0 3 1.0 4 1.0 5 1.0
 2
 3
 4
 5 6 1.0 7 1.0 8 1.0
 6
 7
 8 9 1.0 10 1.0 11 1.0
 9
 10
 11 12 1.0 13 1.0 14 1.0
 12
 13
 14 15 1.0 16 1.0 17 1.0
 15
 16
 17 18 1.0 19 1.0 20 1.0
 18
 19
 20 21 1.0 22 1.0 23 1.0
 21
 22
 23 24 1.0 25 1.0 26 1.0
 24
 25
 26 27 1.0 28 1.0 29 1.0
 27
 28
 29 30 1.0 31 1.0 32 1.0
 30
 31
 32 33 1.0 34 1.0 35 1.0
 33
 34
 35 36 1.0 37 1.0 38 1.0
 36
 37
 38 39 1.0 40 1.0 41 1.0
 39
 40
 41 42 1.0 43 1.0 44 1.0
 42
 43
 44

