%chk=E:\hetanjin\GithubFiles\DBGCWebapp\demoForLocal\python\Gjfs\banana_067.chk
# hf/3-21g geom=connectivity

Title Card Required

0 2
 C                 -4.48979600   -0.64625849    0.00000000
 H                 -4.13314157   -1.65506850    0.00000000
 H                 -4.13312316   -0.14186030   -0.87365150
 H                 -5.55979600   -0.64624531    0.00000000
 C                 -3.97645378    0.07969778    1.25740497
 H                 -4.33294883    1.08856411    1.25730739
 H                 -4.33328603   -0.42458803    2.13105625
 C                 -2.43645381    0.07943501    1.25754524
 H                 -2.07962183    0.58368820    0.38387502
 H                 -2.07995910   -0.92943143    1.25768017
 C                 -1.92311158    0.80543799    2.51492324
 H                 -2.27994994    0.30118842    3.38859295
 H                 -2.27960051    1.81430647    2.51478507
 C                 -0.38311161    0.80516676    2.51506840
 H                 -0.02627409    1.30941581    1.64139805
 H                 -0.02662244   -0.20370164    2.51520698
 C                  0.13023062    1.53117006    3.77244622
 H                 -0.22660631    1.02691970    4.64611605
 H                 -0.22625975    2.54003804    3.77230867
 C                  1.67023059    1.53090103    3.77259011
 H                  2.02706667    2.03515261    2.89892064
 H                  2.02672120    0.52203313    3.77272605
 C                  2.18357282    2.25690213    5.02996919
 H                  1.82673733    1.75264922    5.90363815
 H                  1.82708101    3.26576960    5.02983428
 C                  3.72357279    2.25663529    5.03011182
 H                  4.08040743    2.76088942    4.15644323
 H                  4.08006483    1.24776790    5.03024511

 1 2 1.0 3 1.0 4 1.0 5 1.0
 2
 3
 4
 5 6 1.0 7 1.0 8 1.0
 6
 7
 8 9 1.0 10 1.0 11 1.0
 9
 10
 11 12 1.0 13 1.0 14 1.0
 12
 13
 14 15 1.0 16 1.0 17 1.0
 15
 16
 17 18 1.0 19 1.0 20 1.0
 18
 19
 20 21 1.0 22 1.0 23 1.0
 21
 22
 23 24 1.0 25 1.0 26 1.0
 24
 25
 26 27 1.0 28 1.0
 27
 28

