%chk=E:\hetanjin\GithubFiles\DBGCWebapp\demoForLocal\python\Gjfs\banana_054.chk
# hf/3-21g geom=connectivity

Title Card Required

0 1
 C                 -5.13605451   -1.56462583    0.00000000
 H                 -4.77940009   -2.57343583    0.00000000
 H                 -4.77938167   -1.06022764   -0.87365150
 H                 -6.20605451   -1.56461264    0.00000000
 C                 -4.62271229   -0.83866955    1.25740497
 H                 -4.97920735    0.17019677    1.25730739
 H                 -4.97954455   -1.34295536    2.13105625
 C                 -3.08271232   -0.83893232    1.25754524
 H                 -2.72588034   -0.33467914    0.38387502
 C                 -2.56937009   -0.11292934    2.51492324
 H                 -2.92620846   -0.61717891    3.38859295
 H                 -2.92585903    0.89593914    2.51478507
 C                 -1.02937012   -0.11320057    2.51506840
 H                 -0.67253261    0.39104848    1.64139805
 H                 -0.67288096   -1.12206897    2.51520698
 C                 -0.51602789    0.61280273    3.77244622
 H                 -0.87286482    0.10855236    4.64611605
 H                 -0.87251827    1.62167070    3.77230867
 C                  1.02397208    0.61253369    3.77259011
 H                  1.38080816    1.11678528    2.89892064
 H                  1.38064492    1.11696303    4.64622363
 H                  1.38046268   -0.39633420    3.77272605
 C                 -2.56962648   -2.29094571    1.25773944
 H                 -3.03891442   -2.83513033    0.46493938
 H                 -1.50933362   -2.29458205    1.11398326
 H                 -2.80414555   -2.75199386    2.19440128

 1 2 1.0 3 1.0 4 1.0 5 1.0
 2
 3
 4
 5 6 1.0 7 1.0 8 1.0
 6
 7
 8 9 1.0 10 1.0 23 1.0
 9
 10 11 1.0 12 1.0 13 1.0
 11
 12
 13 14 1.0 15 1.0 16 1.0
 14
 15
 16 17 1.0 18 1.0 19 1.0
 17
 18
 19 20 1.0 21 1.0 22 1.0
 20
 21
 22
 23 24 1.0 25 1.0 26 1.0
 24
 25
 26

