%chk=E:\hetanjin\GithubFiles\DBGCWebapp\demoForLocal\python\Gjfs\banana_061.chk
# hf/3-21g geom=connectivity

Title Card Required

0 1
 C                 -5.74829942   -0.51020407    0.00000000
 H                 -5.39164499   -1.51901408    0.00000000
 H                 -5.39162658   -0.00580588   -0.87365150
 H                 -6.81829942   -0.51019089    0.00000000
 C                 -5.23495720    0.21575220    1.25740497
 H                 -5.59161040    1.22456264    1.25740422
 H                 -5.59163133   -0.28864544    2.13105626
 C                 -3.69495720    0.21573083    1.25740586
 H                 -3.33828337    0.71843437    0.38277855
 H                 -3.33830434   -0.79307783    1.25936138
 C                 -3.18161495    0.94412238    2.51340168
 H                 -3.53865452    0.44167666    3.38802791
 H                 -3.53790258    1.95305963    2.51122260
 C                 -1.64161509    0.94354455    2.51372533
 H                 -1.28457637    1.44597239    1.63908848
 H                 -1.28532723   -0.06539257    2.51592482
 C                 -1.12827282    1.67196134    3.76970651
 H                 -1.48531527    1.16953523    4.64434283
 H                 -1.48455758    2.68089956    3.76750540
 C                  0.41172703    1.67137912    3.77003271
 H                  0.76876863    2.17381104    2.89539938
 H                  0.76801202    0.66244097    3.77222690
 C                  0.92506929    2.39978712    5.02601898
 H                  0.56802828    1.89735388    5.90065180
 H                  0.56878310    3.40872485    5.02382581
 C                  2.46506915    2.39920710    5.02634392
 H                  2.82210931    2.90164309    4.15171233
 H                  2.82174202    2.90530572    5.89901146
 H                  2.82135557    1.39026945    5.02853371

 1 2 1.0 3 1.0 4 1.0 5 1.0
 2
 3
 4
 5 6 1.0 7 1.0 8 1.0
 6
 7
 8 9 1.0 10 1.0 11 1.0
 9
 10
 11 12 1.0 13 1.0 14 1.0
 12
 13
 14 15 1.0 16 1.0 17 1.0
 15
 16
 17 18 1.0 19 1.0 20 1.0
 18
 19
 20 21 1.0 22 1.0 23 1.0
 21
 22
 23 24 1.0 25 1.0 26 1.0
 24
 25
 26 27 1.0 28 1.0 29 1.0
 27
 28
 29

