%chk=E:\hetanjin\GithubFiles\DBGCWebapp\demoForLocal\python\Gjfs\banana_006.chk
# hf/3-21g geom=connectivity

Title Card Required

0 1
 C                  1.12244900   -0.30612244    0.00000000
 C                  1.79772331    0.86885485    0.00000000
 H                  1.26455956    1.79655977    0.00000000
 H                  2.86772331    0.86885485    0.00000000
 C                 -0.41755100   -0.30612244    0.00000000
 H                 -0.77421735    0.19844981   -0.87355364
 H                 -0.77421735   -1.31492821   -0.00019531
 H                 -0.77421786    0.19811110    0.87374899
 C                  1.88980617   -1.64132392    0.00000000
 H                  1.62952631   -2.20228330    0.87320042
 H                  1.63088007   -2.20150528   -0.87410189
 H                  2.94217569   -1.44788769    0.00090148

 1 2 2.0 5 1.0 9 1.0
 2 3 1.0 4 1.0
 3
 4
 5 6 1.0 7 1.0 8 1.0
 6
 7
 8
 9 10 1.0 11 1.0 12 1.0
 10
 11
 12

