%chk=E:\hetanjin\GithubFiles\DBGCWebapp\demoForLocal\python\Gjfs\banana_057.chk
# hf/3-21g geom=connectivity

Title Card Required

0 1
 C                 -1.63265309    0.20408163    0.00000000
 C                 -3.17265309    0.20410060    0.00000000
 H                 -3.52930701    1.21291079    0.00000013
 H                 -3.52932565   -0.30029801   -0.87365137
 C                 -1.11933737   -1.24785052    0.00000000
 H                 -1.47600958   -1.75224849   -0.87365189
 H                 -0.04933737   -1.24786317    0.00000116
 H                 -1.47601091   -1.75224950    0.87365077
 C                 -1.11931087    0.93003790    1.25740497
 H                 -1.47580592    1.93890423    1.25730739
 H                 -1.47614313    0.42575210    2.13105625
 C                 -1.11931087    0.93003790   -1.25740497
 H                 -0.04931264    0.93171919   -1.25642706
 H                 -1.47438587    0.42451083   -2.13105486
 H                 -1.47756144    1.93828171   -1.25838411
 C                 -3.68599564   -0.52185598    1.25740465
 H                 -4.75599383   -0.52014907    1.25838263
 H                 -3.33093893   -1.53122895    1.25642719
 H                 -3.32772705   -0.01858810    2.13105507
 C                  0.42068910    0.92977514    1.25754524
 H                  0.77752127    1.43568802    0.38483513
 H                  0.77718398   -0.07908968    1.25576277
 C                  0.93403080    1.65338704    2.51630103
 H                  0.62128762    1.11769152    3.38815080
 H                  2.00271787    1.69955358    2.49028954
 H                  0.53475920    2.64568516    2.54505242

 1 2 1.0 5 1.0 9 1.0 12 1.0
 2 3 1.0 4 1.0 16 1.0
 3
 4
 5 6 1.0 7 1.0 8 1.0
 6
 7
 8
 9 10 1.0 11 1.0 20 1.0
 10
 11
 12 13 1.0 14 1.0 15 1.0
 13
 14
 15
 16 17 1.0 18 1.0 19 1.0
 17
 18
 19
 20 21 1.0 22 1.0 23 1.0
 21
 22
 23 24 1.0 25 1.0 26 1.0
 24
 25
 26

