%chk=E:\hetanjin\GithubFiles\DBGCWebapp\demoForLocal\python\Gjfs\banana_053.chk
# hf/3-21g geom=connectivity

Title Card Required

0 1
 C                 -2.99319733   -0.78231291    0.00000000
 H                 -2.63654291   -1.79112292    0.00000000
 H                 -2.63652449   -0.27791472   -0.87365150
 H                 -4.06319733   -0.78229973    0.00000000
 C                 -2.47985511   -0.05635664    1.25740497
 H                 -2.83650975    0.95245329    1.25740510
 H                 -2.83652781   -0.56075530    2.13105626
 C                 -0.93985511   -0.05637581    1.25740459
 H                 -0.58320132   -1.06518414    1.25936086
 H                 -0.58318221    0.44632724    0.38277663
 C                 -0.42651286    0.67201825    2.51339895
 H                 -0.78355100    0.16957327    3.38802619
 H                 -0.78280194    1.68095499    2.51121874
 C                  1.11348700    0.67144262    2.51372134
 H                  1.47052428    1.17386995    1.63908361
 H                  1.46977630   -0.33749399    2.51592171
 C                  1.62682926    1.39986160    3.76970124
 H                  1.26978825    0.89743601    4.64433845
 C                  3.16682911    1.39928159    3.77002618
 H                  3.52386927    1.90171300    2.89539197
 H                  3.52350198    1.90538477    4.64269108
 H                  3.52311554    0.39034394    3.77222125
 C                  1.11404352    2.85197756    3.76653202
 H                  1.14228502    3.23802567    2.76900043
 H                  0.10788021    2.87571622    4.12981135
 H                  1.73567932    3.45112808    4.39858233

 1 2 1.0 3 1.0 4 1.0 5 1.0
 2
 3
 4
 5 6 1.0 7 1.0 8 1.0
 6
 7
 8 9 1.0 10 1.0 11 1.0
 9
 10
 11 12 1.0 13 1.0 14 1.0
 12
 13
 14 15 1.0 16 1.0 17 1.0
 15
 16
 17 18 1.0 19 1.0 23 1.0
 18
 19 20 1.0 21 1.0 22 1.0
 20
 21
 22
 23 24 1.0 25 1.0 26 1.0
 24
 25
 26

