%chk=E:\hetanjin\GithubFiles\DBGCWebapp\demoForLocal\python\Gjfs\banana_019.chk
# hf/3-21g geom=connectivity

Title Card Required

0 1
 C                 -0.85004875   -0.51020407   -0.02225931
 C                 -0.17477445    0.66477322   -0.02225931
 H                 -0.70793819    1.59247814   -0.02225931
 H                  0.89522555    0.66477322   -0.02225931
 C                 -2.39004875   -0.51020407   -0.02225931
 H                 -2.74671510   -1.51900986   -0.02226120
 H                 -2.74671561   -0.00579975   -0.89590971
 C                 -0.08269158   -1.84540555   -0.02225931
 H                 -0.34082514   -2.40513142    0.85236862
 H                 -0.34376269   -2.40681967   -0.89493110
 C                  1.43193185   -1.56700307   -0.02507468
 H                  1.96509332   -2.49470874   -0.02609349
 H                  1.68990643   -1.00640870   -0.89919313
 H                  1.69316357   -1.00645635    0.84810649
 C                 -2.90338163    0.21575694    1.23514674
 H                 -2.80251191    1.27275059    1.10289808
 H                 -3.93354774   -0.02739071    1.39178966
 H                 -2.33075140   -0.09368783    2.08440439

 1 2 2.0 5 1.0 8 1.0
 2 3 1.0 4 1.0
 3
 4
 5 6 1.0 7 1.0 15 1.0
 6
 7
 8 9 1.0 10 1.0 11 1.0
 9
 10
 11 12 1.0 13 1.0 14 1.0
 12
 13
 14
 15 16 1.0 17 1.0 18 1.0
 16
 17
 18

