%chk=E:\hetanjin\GithubFiles\DBGCWebapp\demoForLocal\python\Gjfs\banana_042.chk
# hf/3-21g geom=connectivity

Title Card Required

0 1
 C                 -2.24489800    0.30612244    0.00000000
 H                 -1.71173425   -0.62158248    0.00000000
 C                 -1.56962369    1.48109974    0.00000000
 H                 -2.10278744    2.40880466    0.00000000
 C                 -0.02962369    1.48109974    0.00000000
 H                  0.32704266    0.97652749   -0.87355364
 H                  0.32704317    0.97686620    0.87374899
 C                  0.48370919    2.93302580   -0.00028110
 H                  0.12544581    3.43816159    0.87229279
 H                  1.55370740    2.93302681    0.00167491
 H                  0.12864052    3.43669435   -0.87500633
 C                 -3.78489800    0.30612244    0.00000000
 C                 -4.29823087   -1.14580361   -0.00028147
 H                 -3.94156698   -1.65037432    0.87327406
 H                 -5.36823087   -1.14580361   -0.00028552
 H                 -3.94156094   -1.65003826   -0.87402856
 C                 -4.29823160    1.03232894   -1.25726399
 H                 -4.19492623    2.08919311   -1.12586331
 H                 -3.72732346    0.72107484   -2.10701970
 H                 -5.32911186    0.79129070   -1.41246212
 C                 -4.29823087    1.03184204    1.25754540
 H                 -5.34419533    0.84090214    1.37754668
 H                 -3.76957759    0.67437887    2.11640848
 H                 -4.13758589    2.08447867    1.15242974

 1 2 1.0 3 2.0 12 1.0
 2
 3 4 1.0 5 1.0
 4
 5 6 1.0 7 1.0 8 1.0
 6
 7
 8 9 1.0 10 1.0 11 1.0
 9
 10
 11
 12 13 1.0 17 1.0 21 1.0
 13 14 1.0 15 1.0 16 1.0
 14
 15
 16
 17 18 1.0 19 1.0 20 1.0
 18
 19
 20
 21 22 1.0 23 1.0 24 1.0
 22
 23
 24

