%chk=E:\hetanjin\GithubFiles\DBGCWebapp\demoForLocal\python\Gjfs\banana_076.chk
# hf/3-21g geom=connectivity

Title Card Required

0 2
 C                 -5.47619057   -1.25850338    0.00000000
 H                 -5.11953615   -2.26731339    0.00000000
 H                 -5.11951773   -0.75410519   -0.87365150
 H                 -6.54619057   -1.25849020    0.00000000
 C                 -4.96284835   -0.53254711    1.25740497
 H                 -5.31950299    0.47626282    1.25740510
 H                 -5.31952105   -1.03694577    2.13105626
 C                 -3.42284835   -0.53256628    1.25740459
 H                 -3.06619456   -1.54137461    1.25936086
 H                 -3.06617545   -0.02986323    0.38277663
 C                 -2.90950610    0.19582778    2.51339895
 H                 -3.26654424   -0.30661720    3.38802619
 H                 -3.26579518    1.20476452    2.51121874
 C                 -1.36950624    0.19525216    2.51372134
 H                 -1.01246896    0.69767949    1.63908361
 H                 -1.01321694   -0.81368446    2.51592171
 C                 -0.85616398    0.92367113    3.76970124
 H                 -1.21320499    0.42124554    4.64433845
 H                 -1.21245018    1.93260884    3.76749925
 C                  0.68383587    0.92309112    3.77002618
 H                  1.04087603    1.42552253    2.89539197
 C                  1.19717813    1.65150131    5.02601118
 H                  0.84013856    1.14906858    5.90064487
 H                  0.84089049    2.66043852    5.02381713
 C                  3.25052024    2.37932930    6.28232238
 H                  2.89348211    1.87689250    7.15695433
 H                  4.32052014    2.37892935    6.28254638
 H                  2.89423117    3.38826602    6.28013273
 C                  2.73717799    1.65092349    5.02633484
 H                  3.09421700    2.15335907    4.15170256
 H                  3.09346618    0.64198646    5.02852572

 1 2 1.0 3 1.0 4 1.0 5 1.0
 2
 3
 4
 5 6 1.0 7 1.0 8 1.0
 6
 7
 8 9 1.0 10 1.0 11 1.0
 9
 10
 11 12 1.0 13 1.0 14 1.0
 12
 13
 14 15 1.0 16 1.0 17 1.0
 15
 16
 17 18 1.0 19 1.0 20 1.0
 18
 19
 20 21 1.0 22 1.0
 21
 22 23 1.0 24 1.0 29 1.0
 23
 24
 25 26 1.0 27 1.0 28 1.0 29 1.0
 26
 27
 28
 29 30 1.0 31 1.0
 30
 31

