%chk=E:\hetanjin\GithubFiles\DBGCWebapp\demoForLocal\python\Gjfs\banana_026.chk
# hf/3-21g geom=connectivity

Title Card Required

0 1
 C                 -2.51700685   -0.81632652    0.00000000
 H                 -2.16033401   -0.31192833   -0.87365150
 C                 -2.00366463   -0.09037024    1.25740497
 H                 -2.36049688   -0.59465605    2.13105625
 C                 -4.05700685   -0.81630754    0.00000000
 H                 -4.41366076    0.19250074    0.00195626
 H                 -4.41367939   -1.31901114   -0.87462780
 H                 -4.41367994   -1.32239907    0.87267157
 C                 -2.00369113   -2.26825867    0.00000000
 H                 -2.36055597   -2.77272474   -0.87353390
 H                 -0.93369116   -2.26827133   -0.00023477
 H                 -2.36017202   -2.77258954    0.87376871
 C                 -2.51675097    1.36164297    1.25726452
 H                 -2.54194601    1.73086588    0.25330254
 H                 -3.50206942    1.39214705    1.67333789
 H                 -1.86236857    1.97091038    1.84503736
 C                 -0.46366466   -0.09063301    1.25754524
 H                 -0.10719086   -1.04588474    1.58207655
 H                 -0.10687465    0.10587759    0.26810880
 H                 -0.10692894    0.66792557    1.92254787

 1 2 1.0 3 1.0 5 1.0 9 1.0
 2
 3 4 1.0 13 1.0 17 1.0
 4
 5 6 1.0 7 1.0 8 1.0
 6
 7
 8
 9 10 1.0 11 1.0 12 1.0
 10
 11
 12
 13 14 1.0 15 1.0 16 1.0
 14
 15
 16
 17 18 1.0 19 1.0 20 1.0
 18
 19
 20

