%chk=E:\hetanjin\GithubFiles\DBGCWebapp\demoForLocal\python\Gjfs\banana_086.chk
# hf/3-21g geom=connectivity

Title Card Required

0 1
 C                 -3.09523815   -0.37414965    0.00000000
 H                 -4.16523815   -0.37414965    0.00000000
 C                 -2.41996384    0.80082764    0.00000000
 H                 -1.34996384    0.80082764    0.00000000
 C                 -2.32788098   -1.70935113    0.00000000
 H                 -3.02480856   -2.52125747    0.00019557
 H                 -1.71298220   -1.76733428   -0.87374908
 H                 -1.71268864   -1.76716615    0.87355355
 C                 -3.18732101    2.13602912    0.00000000
 H                 -3.80251328    2.19384360    0.87355364
 H                 -3.80221986    2.19401281   -0.87374899
 C                 -2.18426636    3.30456722    0.00028110
 H                 -1.56907948    3.24675624   -0.87327656
 H                 -1.56936220    3.24657927    0.87402606
 C                 -2.95162354    4.63976869    0.00029267
 H                 -3.56680248    4.69758326    0.87385569
 H                 -3.56653572    4.69775230   -0.87344694
 C                 -1.94856889    5.80830680    0.00055835
 H                 -1.33339080    5.75049184   -0.87300525
 H                 -1.33365592    5.75032283    0.87429738
 C                 -2.71592606    7.14350827    0.00057157
 H                 -3.33110196    7.20132350    0.87413668
 H                 -3.33084128    7.20149121   -0.87316595
 C                 -1.71287141    8.31204638    0.00083287
 H                 -1.09769616    8.25423059   -0.87273267
 H                 -1.09795561    8.25406324    0.87456996
 C                 -2.48022858    9.64724785    0.00084732
 H                 -3.09540287    9.70506321    0.87441356
 H                 -1.78330100   10.45915420    0.00102747
 H                 -3.09514542    9.70523066   -0.87288907

 1 2 1.0 3 2.0 5 1.0
 2
 3 4 1.0 9 1.0
 4
 5 6 1.0 7 1.0 8 1.0
 6
 7
 8
 9 10 1.0 11 1.0 12 1.0
 10
 11
 12 13 1.0 14 1.0 15 1.0
 13
 14
 15 16 1.0 17 1.0 18 1.0
 16
 17
 18 19 1.0 20 1.0 21 1.0
 19
 20
 21 22 1.0 23 1.0 24 1.0
 22
 23
 24 25 1.0 26 1.0 27 1.0
 25
 26
 27 28 1.0 29 1.0 30 1.0
 28
 29
 30

