%chk=E:\hetanjin\GithubFiles\DBGCWebapp\demoForLocal\python\Gjfs\banana_051.chk
# hf/3-21g geom=connectivity

Title Card Required

0 1
 C                 -1.52943226   -0.13605442   -0.06009156
 C                 -1.01609004    0.58990185    1.19731341
 C                 -1.01609004    0.58990185   -1.31749652
 H                  0.05390996    0.58992078   -1.31747765
 H                 -1.37273290    0.08548157   -2.19114751
 H                 -1.37277451    1.59870123   -1.31751554
 C                 -3.06943226   -0.13603544   -0.06009156
 H                 -3.42610482   -0.64041248   -0.93375538
 H                 -3.42610482   -0.64045518    0.81354762
 H                 -3.42608668    0.87277456   -0.06006691
 C                 -1.01611654   -1.58798657   -0.06009156
 H                 -1.37277298   -2.09237896    0.81357000
 H                 -1.37280579   -2.09239056   -0.93373301
 H                  0.05388346   -1.58799976   -0.06011165
 C                 -1.52966170   -0.13589267    2.45471806
 H                 -1.17366281   -1.14493417    2.45451154
 H                 -1.17249300    0.36815512    3.32836922
 H                 -2.59966145   -0.13518455    2.45492433
 C                 -1.52917638    2.04191507    1.19717297
 H                 -1.17108117    2.54659088    0.32426395
 H                 -2.59917528    2.04245591    1.19573567
 H                 -1.17342930    2.54568382    2.07156480
 C                  0.52390993    0.58963909    1.19745369
 H                  0.88074187    1.09358421    0.32360572
 H                  0.88058285    1.09437769    2.07090854
 H                  0.88040461   -0.41922726    1.19794428

 1 2 1.0 3 1.0 7 1.0 11 1.0
 2 15 1.0 19 1.0 23 1.0
 3 4 1.0 5 1.0 6 1.0
 4
 5
 6
 7 8 1.0 9 1.0 10 1.0
 8
 9
 10
 11 12 1.0 13 1.0 14 1.0
 12
 13
 14
 15 16 1.0 17 1.0 18 1.0
 16
 17
 18
 19 20 1.0 21 1.0 22 1.0
 20
 21
 22
 23 24 1.0 25 1.0 26 1.0
 24
 25
 26

