%chk=E:\hetanjin\GithubFiles\DBGCWebapp\demoForLocal\python\Gjfs\banana_064.chk
# hf/3-21g geom=connectivity

Title Card Required

0 1
 C                 -3.19727897   -0.10204081    0.00000000
 C                 -4.73727897   -0.10202184    0.00000000
 H                 -5.09395155   -0.60811357    0.87267166
 H                 -5.09393288    0.90678645    0.00195600
 H                 -5.09395202   -0.60472524   -0.87462771
 C                 -2.68396325   -1.55397297    0.00000000
 H                 -3.04094451   -2.05848020   -0.87346255
 H                 -1.61396332   -1.55398564   -0.00037739
 H                 -3.04032767   -2.05826266    0.87383998
 C                 -2.68393675    0.62391546    1.25740497
 H                 -3.04038292    1.63279906    1.25727746
 H                 -3.04081788    0.11966422    2.13105624
 C                 -2.68393675    0.62391546   -1.25740497
 H                 -3.04075239    1.63266845   -1.25750370
 H                 -1.61393676    0.62407292   -1.25730612
 H                 -3.04044842    0.11940296   -2.13105625
 C                 -1.14393680    0.62357808    1.25758833
 C                 -0.63092142   -0.82845980    1.25869983
 H                 -1.36900297   -1.46716633    1.69709416
 H                 -0.44123352   -1.14048422    0.25293681
 H                  0.27391787   -0.88661186    1.82684084
 C                 -0.63059435    1.35033798    2.51452889
 H                  0.43892382    1.37821502    2.49859909
 H                 -1.01323251    2.34946043    2.53009721
 H                 -0.96080152    0.82829482    3.38821886
 C                 -0.63029532    1.34851860   -0.00028037
 H                 -0.47448138    0.63652241   -0.78365988
 H                 -1.35276797    2.07242305   -0.31475710
 H                  0.29324405    1.84030258    0.22360253

 1 2 1.0 6 1.0 10 1.0 13 1.0
 2 3 1.0 4 1.0 5 1.0
 3
 4
 5
 6 7 1.0 8 1.0 9 1.0
 7
 8
 9
 10 11 1.0 12 1.0 17 1.0
 11
 12
 13 14 1.0 15 1.0 16 1.0
 14
 15
 16
 17 18 1.0 22 1.0 26 1.0
 18 19 1.0 20 1.0 21 1.0
 19
 20
 21
 22 23 1.0 24 1.0 25 1.0
 23
 24
 25
 26 27 1.0 28 1.0 29 1.0
 27
 28
 29

