%chk=E:\hetanjin\GithubFiles\DBGCWebapp\demoForLocal\python\Gjfs\banana_072.chk
# hf/3-21g geom=connectivity

Title Card Required

0 1
 C                 -1.87074833   -0.44217686    0.00000000
 H                 -1.51407549    0.06222133   -0.87365150
 C                 -3.41074833   -0.44215789    0.00000000
 H                 -3.76742092   -0.94824961    0.87267166
 H                 -3.76740225    0.56665040    0.00195600
 H                 -3.76742138   -0.94486129   -0.87462771
 C                 -1.35743262   -1.89410902    0.00000000
 H                 -1.71441388   -2.39861625   -0.87346255
 H                 -0.28743268   -1.89412169   -0.00037739
 H                 -1.71379703   -2.39839871    0.87383998
 C                 -1.35740611    0.28377941    1.25740497
 C                 -1.87042209    1.73581748    1.25722145
 H                 -1.89528463    2.10510579    0.25327524
 H                 -2.85584912    1.76645280    1.67302796
 H                 -1.21610315    2.34494487    1.84521001
 C                  0.18259384    0.28344203    1.25758833
 H                  0.53901228   -0.67182225    1.58214349
 H                  0.53942105    0.47992097    0.26815901
 H                  0.53934771    1.04199299    1.92258992
 C                 -1.87104811   -0.44196536    2.51480961
 C                 -3.41104202   -0.44554276    2.51236871
 H                 -3.76492307   -1.37355522    2.11429700
 H                 -3.76957192   -0.32703216    3.51352382
 H                 -3.76862640    0.36147355    1.90758933
 C                 -1.35434665   -1.89269401    2.51725480
 H                 -1.14179253   -2.19391023    3.52173951
 H                 -2.10018817   -2.53765238    2.10174411
 H                 -0.46205250   -1.95449279    1.92997968
 C                 -1.36139742    0.28659617    3.77220941
 H                 -1.72492210   -0.21294766    4.64582590
 H                 -0.29142275    0.28204034    3.77799281
 H                 -1.71373962    1.29690399    3.76645706

 1 2 1.0 3 1.0 7 1.0 11 1.0
 2
 3 4 1.0 5 1.0 6 1.0
 4
 5
 6
 7 8 1.0 9 1.0 10 1.0
 8
 9
 10
 11 12 1.0 16 1.0 20 1.0
 12 13 1.0 14 1.0 15 1.0
 13
 14
 15
 16 17 1.0 18 1.0 19 1.0
 17
 18
 19
 20 21 1.0 25 1.0 29 1.0
 21 22 1.0 23 1.0 24 1.0
 22
 23
 24
 25 26 1.0 27 1.0 28 1.0
 26
 27
 28
 29 30 1.0 31 1.0 32 1.0
 30
 31
 32

