%chk=E:\hetanjin\GithubFiles\DBGCWebapp\demoForLocal\python\Gjfs\banana_052.chk
# hf/3-21g geom=connectivity

Title Card Required

0 1
 C                 -2.34693882    1.63265304    0.00000000
 H                 -1.99026598    2.13705123    0.87365150
 H                 -1.99026598    2.13705123   -0.87365150
 H                 -3.41693882    1.63266622    0.00000000
 C                 -1.83362310    0.18072088    0.00000000
 H                 -2.19029675   -0.32367759   -0.87365101
 H                 -2.19029520   -0.32367758    0.87365165
 C                 -0.29362310    0.18070268   -0.00000086
 H                  0.06304870    0.68340577   -0.87462925
 H                  0.06305022    0.68679507    0.87267012
 C                  0.21969261   -1.27122674    0.00281556
 H                 -0.13734654   -1.77744774   -0.86963120
 H                 -0.13661388   -1.77379988    0.87766750
 C                  1.75969248   -1.27124624    0.00217037
 H                  2.11673078   -0.76500771    0.87460731
 H                  2.11599920   -0.76869023   -0.87269132
 C                  2.27300821   -2.72317560    0.00501496
 H                  1.91596613   -3.22941456   -0.86742018
 H                  1.91670464   -3.22573073    0.87987844
 C                  3.81300807   -2.72319511    0.00436461
 H                  4.17004930   -2.21696159    0.87680325
 H                  4.16931187   -2.22063409   -0.87049539
 C                  4.32632379   -4.17512449    0.00719915
 H                  3.96928286   -4.68135701   -0.86524019
 H                  5.39632370   -4.17513804    0.00674870
 H                  3.97001908   -4.67768608    0.88205845

 1 2 1.0 3 1.0 4 1.0 5 1.0
 2
 3
 4
 5 6 1.0 7 1.0 8 1.0
 6
 7
 8 9 1.0 10 1.0 11 1.0
 9
 10
 11 12 1.0 13 1.0 14 1.0
 12
 13
 14 15 1.0 16 1.0 17 1.0
 15
 16
 17 18 1.0 19 1.0 20 1.0
 18
 19
 20 21 1.0 22 1.0 23 1.0
 21
 22
 23 24 1.0 25 1.0 26 1.0
 24
 25
 26

