# hf/3-21g 

Title Card Required

0 1
 C                 -3.02721094   -0.71428570    0.00000000
 H                 -2.67055651   -1.72309571    0.00000000
 H                 -2.67053810   -0.20988751   -0.87365150
 H                 -4.09721094   -0.71427252    0.00000000
 C                 -2.51386872    0.01167057    1.25740497
 H                 -2.86892528    1.02104359    1.25642758
 H                 -2.87213768   -0.49159743    2.13105517
 C                 -0.97387132    0.00921367    1.25881307
 H                 -0.44071504   -0.45602554    0.45619432
 C                 -0.29162079    0.59427418    2.27311354
 H                 -0.81898926    1.03854415    3.09128632
 H                  0.77809102    0.61200037    2.25572340

 
 