%chk=E:\hetanjin\GithubFiles\DBGCWebapp\demoForLocal\python\Gjfs\banana_007.chk
# hf/3-21g geom=connectivity

Title Card Required

0 1
 C                 -0.13605442   -0.88435373    0.00000000
 H                  0.39710932   -1.81205865    0.00000000
 C                  0.53921988    0.29062357    0.00000000
 H                  0.00605614    1.21832849   -0.00000000
 H                  1.60921988    0.29062357    0.00000000
 C                 -1.67605442   -0.88435373    0.00000000
 H                 -2.03272077   -0.37978148   -0.87355364
 H                 -2.03272128   -0.38012019    0.87374899
 C                 -2.18938730   -2.33627979   -0.00028110
 H                 -1.83273427   -2.84084643    0.87328122
 H                 -1.83270650   -2.84051850   -0.87402141
 C                 -3.72938730   -2.33627978   -0.00030608
 H                 -4.08603948   -1.83172365   -0.87387481
 H                 -4.08605365   -3.34508555   -0.00048856
 H                 -4.08606833   -1.83203012    0.87342782

 1 2 1.0 3 2.0 6 1.0
 2
 3 4 1.0 5 1.0
 4
 5
 6 7 1.0 8 1.0 9 1.0
 7
 8
 9 10 1.0 11 1.0 12 1.0
 10
 11
 12 13 1.0 14 1.0 15 1.0
 13
 14
 15

