%chk=E:\hetanjin\GithubFiles\DBGCWebapp\demoForLocal\python\Gjfs\banana_050.chk
# hf/3-21g geom=connectivity

Title Card Required

0 1
 C                 -0.57823130   -0.03401360    0.00000000
 C                 -2.11823130   -0.03399463    0.00000000
 H                 -2.47490387   -0.53837647   -0.87366106
 H                 -2.47490437   -0.53840981    0.87364160
 C                 -0.06491559   -1.48594576    0.00000000
 H                 -0.42159067   -1.99034474   -0.87365013
 H                 -0.42158625   -1.99034372    0.87365253
 C                 -0.06488908    0.69194267    1.25740497
 H                  1.00510911    0.69023560    1.25838332
 H                 -0.41994564    1.70131568    1.25642758
 H                 -0.42315805    0.18867467    2.13105517
 C                 -0.06488908    0.69194267   -1.25740497
 H                  1.00511091    0.69206071   -1.25732887
 H                 -0.42166699    1.70070900   -1.25748121
 C                 -2.63154629    1.41793778    0.00002806
 H                 -2.27647396    1.92176451    0.87466071
 H                 -2.27328732    1.92291569   -0.87263901
 H                 -3.70154451    1.41793825   -0.00192335
 C                  1.47508441   -1.48596396   -0.00000339
 H                  1.83173884   -2.49477206    0.00195523
 H                  1.83175477   -0.98326290   -0.87463354
 H                  1.83175917   -0.97986954    0.87266582
 C                 -0.57805366   -0.03414050   -2.51480918
 H                 -1.17400474    0.63777911   -3.09641588
 H                  0.25424530   -0.36878281   -3.09806981
 H                 -1.17095083   -0.87590398   -2.22359243

 1 2 1.0 5 1.0 8 1.0 12 1.0
 2 3 1.0 4 1.0 15 1.0
 3
 4
 5 6 1.0 7 1.0 19 1.0
 6
 7
 8 9 1.0 10 1.0 11 1.0
 9
 10
 11
 12 13 1.0 14 1.0 23 1.0
 13
 14
 15 16 1.0 17 1.0 18 1.0
 16
 17
 18
 19 20 1.0 21 1.0 22 1.0
 20
 21
 22
 23 24 1.0 25 1.0 26 1.0
 24
 25
 26

