%chk=E:\hetanjin\GithubFiles\DBGCWebapp\demoForLocal\python\Gjfs\banana_066.chk
# hf/3-21g geom=connectivity

Title Card Required

0 1
 C                 -4.35374157   -0.85034012    0.00000000
 H                 -3.99708715   -1.85915013    0.00000000
 H                 -3.99706873   -0.34594193   -0.87365150
 H                 -5.42374157   -0.85032694    0.00000000
 C                 -3.84039935   -0.12438385    1.25740497
 H                 -4.19723161   -0.62866966    2.13105625
 C                 -2.30039938   -0.12464662    1.25754524
 H                 -1.94356741    0.37960657    0.38387502
 C                 -1.78705715    0.60135636    2.51492324
 H                 -2.14389552    0.09710679    3.38859295
 C                 -0.24705718    0.60108513    2.51506840
 H                  0.10978033    1.10533418    1.64139805
 H                  0.10961566    1.10551599    3.38870104
 H                  0.10943198   -0.40778327    2.51520698
 C                 -4.35348569    1.32762937    1.25726452
 H                 -4.30494722    1.72310007    2.25031384
 H                 -3.74541110    1.92107489    0.60690485
 H                 -5.36693905    1.34745694    0.91459973
 C                 -2.30013469    2.05337268    2.51472437
 H                 -1.59793442    2.67975074    3.02410176
 H                 -2.41377676    2.39178149    1.50602969
 H                 -3.24531061    2.09740828    3.01432755
 C                 -1.78731354   -1.57666001    1.25773944
 H                 -2.14395608   -2.08105088    0.38407134
 H                 -0.71731357   -1.57684698    1.25787759
 C                 -2.30093599   -2.30246033    2.51511999
 H                 -2.89478362   -3.14354374    2.22387491
 H                 -1.46884778   -2.63809128    3.09811319
 H                 -2.89604400   -1.63003557    3.09700607

 1 2 1.0 3 1.0 4 1.0 5 1.0
 2
 3
 4
 5 6 1.0 7 1.0 15 1.0
 6
 7 8 1.0 9 1.0 23 1.0
 8
 9 10 1.0 11 1.0 19 1.0
 10
 11 12 1.0 13 1.0 14 1.0
 12
 13
 14
 15 16 1.0 17 1.0 18 1.0
 16
 17
 18
 19 20 1.0 21 1.0 22 1.0
 20
 21
 22
 23 24 1.0 25 1.0 26 1.0
 24
 25
 26 27 1.0 28 1.0 29 1.0
 27
 28
 29

