%chk=E:\hetanjin\GithubFiles\DBGCWebapp\demoForLocal\python\Gjfs\banana_090.chk
# hf/3-21g geom=connectivity

Title Card Required

0 2
 C                 -4.01539244   -0.89192287   -0.01299041
 H                 -3.65873802   -1.90073287   -0.01299041
 H                 -3.65871960   -0.38752468   -0.88664191
 H                 -5.08539244   -0.89190968   -0.01299041
 C                 -3.50205022   -0.16596659    1.24441456
 H                 -3.85870486    0.84284333    1.24441469
 H                 -3.85872292   -0.67036525    2.11806585
 C                 -1.96205023   -0.16598577    1.24441418
 H                 -1.60539644   -1.17479410    1.24637045
 H                 -1.60537732    0.33671728    0.36978622
 C                 -1.44870798    0.56240830    2.50040854
 H                 -1.80574611    0.05996331    3.37503578
 H                 -1.80499705    1.57134503    2.49822833
 C                  0.09129188    0.56183267    2.50073093
 H                  0.44832916    1.06426000    1.62609320
 H                  0.44758119   -0.44710394    2.50293130
 C                  0.60463414    1.29025165    3.75671083
 H                  0.24759314    0.78782605    4.63134804
 H                  0.24834795    2.29918936    3.75450884
 C                  2.14463400    1.28967163    3.75703577
 H                  2.50167416    1.79210304    2.88240156
 H                  2.50092043    0.28073399    3.75923084
 C                  2.65797626    2.01808182    5.01302077
 H                  2.30168862    3.02701904    5.01082672
 C                  4.04797613    2.01756028    5.01331290
 H                  4.58113381    1.55183195    4.21097880
 C                  4.74774649    2.61997375    6.05231215
 H                  4.22034688    3.06733827    6.86877686
 H                  5.81748988    2.63639394    6.03559524

 1 2 1.0 3 1.0 4 1.0 5 1.0
 2
 3
 4
 5 6 1.0 7 1.0 8 1.0
 6
 7
 8 9 1.0 10 1.0 11 1.0
 9
 10
 11 12 1.0 13 1.0 14 1.0
 12
 13
 14 15 1.0 16 1.0 17 1.0
 15
 16
 17 18 1.0 19 1.0 20 1.0
 18
 19
 20 21 1.0 22 1.0 23 1.0
 21
 22
 23 24 1.0 25 1.5
 24
 25 26 1.0 27 1.5
 26
 27 28 1.0 29 1.0
 28
 29

