%chk=E:\hetanjin\GithubFiles\DBGCWebapp\demoForLocal\python\Gjfs\banana_078.chk
# hf/3-21g geom=connectivity

Title Card Required

0 1
 C                 -4.01360551   -2.44897956    0.00000000
 H                 -3.65695109   -3.45778956    0.00000000
 H                 -3.65693267   -1.94458137   -0.87365150
 H                 -5.08360551   -2.44896637    0.00000000
 C                 -3.50026329   -1.72302328    1.25740497
 H                 -3.85675835   -0.71415695    1.25730739
 H                 -3.85709555   -2.22730909    2.13105625
 C                 -1.96026332   -1.72328605    1.25754524
 H                 -1.60343135   -1.21903286    0.38387502
 H                 -1.60376861   -2.73215250    1.25768017
 C                 -1.44692109   -0.99728307    2.51492324
 H                 -1.80375946   -1.50153264    3.38859295
 H                 -1.80341003    0.01158541    2.51478507
 C                  0.09307888   -0.99755430    2.51506840
 H                  0.44991639   -0.49330525    1.64139805
 H                  0.44956804   -2.00642270    2.51520698
 C                  0.60642111   -0.27155100    3.77244622
 H                  0.24958418   -0.77580137    4.64611605
 H                  0.24993073    0.73731697    3.77230867
 C                  2.14642108   -0.27182003    3.77259011
 H                  2.50325715    0.23243155    2.89892064
 H                  2.50291168   -1.28068793    3.77272605
 C                  2.65976330    0.45418107    5.02996919
 H                  2.30292781   -0.05007184    5.90363815
 H                  2.30327149    1.46304854    5.02983428
 C                  4.19976327    0.45391423    5.03011182
 H                  4.55659792    0.95816836    4.15644323
 H                  4.55625532   -0.55495316    5.03024511
 C                  4.71310550    1.17991314    6.28749217
 H                  4.35627145    0.67565769    7.16116024
 H                  4.35661225    2.18878010    6.28735990
 C                  6.25310547    1.17964849    6.28763353
 H                  6.60993868    1.68390364    5.41396493
 H                  6.60959895    0.17078161    6.28776594
 C                  6.76644770    1.90564740    7.54501388
 H                  6.40961509    1.40139094    8.41868195
 H                  7.83644768    1.90546505    7.54511121
 H                  6.40995301    2.91451386    7.54488249

 1 2 1.0 3 1.0 4 1.0 5 1.0
 2
 3
 4
 5 6 1.0 7 1.0 8 1.0
 6
 7
 8 9 1.0 10 1.0 11 1.0
 9
 10
 11 12 1.0 13 1.0 14 1.0
 12
 13
 14 15 1.0 16 1.0 17 1.0
 15
 16
 17 18 1.0 19 1.0 20 1.0
 18
 19
 20 21 1.0 22 1.0 23 1.0
 21
 22
 23 24 1.0 25 1.0 26 1.0
 24
 25
 26 27 1.0 28 1.0 29 1.0
 27
 28
 29 30 1.0 31 1.0 32 1.0
 30
 31
 32 33 1.0 34 1.0 35 1.0
 33
 34
 35 36 1.0 37 1.0 38 1.0
 36
 37
 38

