%chk=E:\hetanjin\GithubFiles\DBGCWebapp\demoForLocal\python\Gjfs\banana_083.chk
# hf/3-21g geom=connectivity

Title Card Required

0 1
 C                 -4.35374157   -1.76870746    0.00000000
 H                 -3.99708715   -2.77751746    0.00000000
 H                 -3.99706873   -1.26430927   -0.87365150
 H                 -5.42374157   -1.76869427    0.00000000
 C                 -3.84039935   -1.04275118    1.25740497
 C                 -2.30039935   -1.04277036    1.25740459
 C                 -1.78705713   -0.31656953    2.51466834
 C                 -0.24705713   -0.31664323    2.51469946
 C                  0.26628509    0.40955758    3.77196321
 H                 -0.09198423   -0.09354077    4.64571097
 H                  1.33628328    0.40785093    3.77294177
 H                 -0.08877111    1.41893052    3.77078991
 C                 -4.35374136   -1.76870813    2.51480964
 H                 -3.73273765   -2.61660163    2.71563543
 H                 -4.32501454   -1.09987010    3.34951345
 H                 -5.36014448   -2.09405111    2.35293094
 C                 -4.35371537    0.40918086    1.25740516
 H                 -3.77158205    0.99328855    0.57561412
 H                 -5.37979168    0.42472188    0.95437729
 H                 -4.26642703    0.81834161    2.24222404
 C                 -1.78705702   -0.31705788   -0.00014105
 H                 -1.79784779    0.73952684    0.16841838
 H                 -0.78733312   -0.63426494   -0.21187627
 H                 -2.41931741   -0.55220696   -0.83071417
 C                 -1.78708456   -2.49470281    1.25768607
 H                 -1.86785442   -2.90151019    2.24403488
 H                 -2.37369598   -3.08044190    0.58115318
 H                 -0.76303250   -2.51096007    0.94792311
 C                 -2.30045138   -1.04224572    3.77221373
 H                 -3.21563541   -0.59175830    4.09532251
 H                 -2.47164830   -2.07351173    3.54399888
 H                 -1.57077924   -0.96567048    4.55106853
 C                 -2.30032091    1.13538096    2.51435501
 H                 -1.57681491    1.76930359    2.98294990
 H                 -2.45785001    1.45819511    1.50644847
 H                 -3.22287648    1.18748045    3.05387041
 C                  0.26633589    0.40903254    1.25715333
 H                  1.21435862    0.85866685    1.46687193
 H                  0.37423681   -0.29465941    0.45835734
 H                 -0.43287980    1.16729329    0.97248150
 C                  0.26620697   -1.76859360    2.51501297
 H                 -0.42970953   -2.39291009    3.03542544
 H                  0.36769596   -2.11116686    1.50642805
 H                  1.21735560   -1.81048978    3.00333766

 1 2 1.0 3 1.0 4 1.0 5 1.0
 2
 3
 4
 5 6 1.0 13 1.0 17 1.0
 6 7 1.0 21 1.0 25 1.0
 7 8 1.0 29 1.0 33 1.0
 8 9 1.0 37 1.0 41 1.0
 9 10 1.0 11 1.0 12 1.0
 10
 11
 12
 13 14 1.0 15 1.0 16 1.0
 14
 15
 16
 17 18 1.0 19 1.0 20 1.0
 18
 19
 20
 21 22 1.0 23 1.0 24 1.0
 22
 23
 24
 25 26 1.0 27 1.0 28 1.0
 26
 27
 28
 29 30 1.0 31 1.0 32 1.0
 30
 31
 32
 33 34 1.0 35 1.0 36 1.0
 34
 35
 36
 37 38 1.0 39 1.0 40 1.0
 38
 39
 40
 41 42 1.0 43 1.0 44 1.0
 42
 43
 44

