%chk=E:\hetanjin\GithubFiles\DBGCWebapp\demoForLocal\python\Gjfs\banana_056.chk
# hf/3-21g geom=connectivity

Title Card Required

0 1
 C                 -3.19727897   -0.61224489    0.00000000
 C                 -4.73727897   -0.61222591    0.00000000
 H                 -5.09393288    0.39658427    0.00001950
 H                 -5.09395153   -1.11660775   -0.87366106
 H                 -5.09395204   -1.11664110    0.87364160
 C                 -2.68396325   -2.06417704    0.00000000
 H                 -3.04063834   -2.56857603   -0.87365013
 H                 -1.61396325   -2.06418969   -0.00000236
 H                 -3.04063391   -2.56857500    0.87365253
 C                 -2.68393675    0.11371138   -1.25740497
 H                 -3.04218768    1.12195506   -1.25838371
 H                 -3.03901138   -0.39181540   -2.13105517
 C                 -2.68393675    0.11371138    1.25740497
 H                 -3.04046753    1.12256509    1.25732926
 H                 -3.04073322   -0.39060027    2.13105595
 H                 -1.61393676    0.11356731    1.25748082
 C                 -1.14393929    0.11613085   -1.25599770
 H                 -0.78569491   -0.89209008   -1.24881942
 H                 -0.78886999    0.62701469   -0.38546712
 C                 -0.63058086    0.83434391   -2.51783490
 H                 -0.98992427    1.84216865   -2.52568476
 H                 -0.98454845    0.32268480   -3.38835882
 C                  0.90941186    0.83844910   -2.51547007
 H                  1.26875498   -0.16937848   -2.50798119
 H                  1.26609485    1.33778161   -3.39202257
 H                  1.26338023    1.34979650   -1.64476333

 1 2 1.0 6 1.0 10 1.0 13 1.0
 2 3 1.0 4 1.0 5 1.0
 3
 4
 5
 6 7 1.0 8 1.0 9 1.0
 7
 8
 9
 10 11 1.0 12 1.0 17 1.0
 11
 12
 13 14 1.0 15 1.0 16 1.0
 14
 15
 16
 17 18 1.0 19 1.0 20 1.0
 18
 19
 20 21 1.0 22 1.0 23 1.0
 21
 22
 23 24 1.0 25 1.0 26 1.0
 24
 25
 26

