%chk=E:\hetanjin\GithubFiles\DBGCWebapp\demoForLocal\python\Gjfs\banana_080.chk
# hf/3-21g geom=connectivity

Title Card Required

0 1
 C                 -0.54421770   -0.71428570    0.00000000
 H                 -0.18754486   -0.20988751   -0.87365150
 C                 -2.08421770   -0.71426673    0.00000000
 C                 -0.03090198   -2.16621786    0.00000000
 C                 -0.03087548    0.01167057    1.25740497
 C                 -2.59756025   -1.44046690    1.25726399
 H                 -2.24038452   -0.93659325    2.13101272
 H                 -3.66756007   -1.43992039    1.25757149
 H                 -2.24140906   -2.44945455    1.25676092
 C                 -2.59753268    0.73766566    0.00028147
 H                 -2.55292001    1.13165890    0.99410189
 H                 -1.98682303    1.33202220   -0.64676878
 H                 -3.60961081    0.75808954   -0.34638946
 C                 -0.54419968   -2.89215917    1.25743178
 H                 -1.45067247   -3.41087511    1.02474993
 H                  0.19250061   -3.59314633    1.59028261
 H                 -0.73106895   -2.17684360    2.03093260
 C                  1.50909802   -2.16623606   -0.00005408
 H                  1.86574142   -3.11851876   -0.33301525
 H                  1.86575029   -1.40175887   -0.65828943
 H                  1.86580190   -1.97844319    0.99110493
 C                 -0.54424852   -0.71426443    2.51480964
 H                  0.26794444   -1.22526864    2.98821992
 H                 -0.96061917    0.00002563    3.19401887
 H                 -1.29676496   -1.42193350    2.23584101
 C                 -0.54416046    1.46361359    1.25738615
 H                 -0.67825541    1.79448564    0.24870274
 H                 -1.47900958    1.51148168    1.77571594
 H                  0.16819887    2.09370760    1.74771839
 C                  1.50912452    0.01161848    1.25742360
 H                  1.86575519   -0.86419452    1.75808931
 H                  1.86580322    0.01592166    0.24863136
 H                  1.86581471    0.88309215    1.76556310
 C                 -0.54428881   -2.89218990   -1.25737765
 H                 -0.44964669   -2.24674213   -2.10551682
 H                  0.03268456   -3.77890112   -1.41782996
 H                 -1.57260803   -3.15533540   -1.12241831
 C                 -2.59755951   -1.43998000   -1.25754540
 H                 -1.88973761   -1.32213079   -2.05127061
 H                 -2.72254003   -2.48071318   -1.04270987
 H                 -3.53707335   -1.02132512   -1.55240443

 1 2 1.0 3 1.0 4 1.0 5 1.0
 2
 3 6 1.0 10 1.0 38 1.0
 4 14 1.0 18 1.0 34 1.0
 5 22 1.0 26 1.0 30 1.0
 6 7 1.0 8 1.0 9 1.0
 7
 8
 9
 10 11 1.0 12 1.0 13 1.0
 11
 12
 13
 14 15 1.0 16 1.0 17 1.0
 15
 16
 17
 18 19 1.0 20 1.0 21 1.0
 19
 20
 21
 22 23 1.0 24 1.0 25 1.0
 23
 24
 25
 26 27 1.0 28 1.0 29 1.0
 27
 28
 29
 30 31 1.0 32 1.0 33 1.0
 31
 32
 33
 34 35 1.0 36 1.0 37 1.0
 35
 36
 37
 38 39 1.0 40 1.0 41 1.0
 39
 40
 41

