%chk=E:\hetanjin\GithubFiles\DBGCWebapp\demoForLocal\python\Gjfs\banana_088.chk
# hf/3-21g geom=connectivity

Title Card Required

0 2
 C                 -2.48299324   -2.07482990    0.00000000
 H                 -1.94982949   -3.00253482    0.00000000
 H                 -3.55299324   -2.07482990    0.00000000
 C                 -1.80771893   -0.89985260    0.00000000
 H                 -2.34088268    0.02785232    0.00000000
 C                 -0.26771893   -0.89985260    0.00000000
 H                  0.08894742   -1.40408635    0.87374908
 H                  0.08894792   -1.40442465   -0.87355355
 C                  0.24561394    0.55207345   -0.00028147
 H                 -0.11089321    1.05625053   -0.87412821
 C                  1.78561392    0.55207352   -0.00000038
 H                  2.14243972    0.04740965   -0.87343597
 H                  2.14212129    0.04793165    0.87386658
 C                  2.29894680    2.00399956   -0.00034008
 H                  1.94212015    2.50866283    0.87309551
 H                  1.94243966    2.50814159   -0.87420704
 C                  3.83894678    2.00399962   -0.00005898
 H                  4.19577258    1.49933728   -0.87349545
 H                  4.19545415    1.49985623    0.87380710
 C                  4.35227966    3.45592567   -0.00039615
 H                  3.99545445    3.96058690    0.87304120
 H                  3.99577108    3.96006973   -0.87426135
 C                  5.89227964    3.45592573   -0.00011759
 H                  6.24910400    2.95126593   -0.87355612
 H                  6.24878845    2.95177979    0.87374644
 C                  6.40561252    4.90785177   -0.00045138
 H                  6.04878875    5.41251047    0.87298803
 H                  7.47561251    4.90785182   -0.00025959
 H                  6.04910250    5.41199838   -0.87431453

 1 2 1.0 3 1.0 4 2.0
 2
 3
 4 5 1.0 6 1.0
 5
 6 7 1.0 8 1.0 9 1.0
 7
 8
 9 10 1.0 11 1.0
 10
 11 12 1.0 13 1.0 14 1.0
 12
 13
 14 15 1.0 16 1.0 17 1.0
 15
 16
 17 18 1.0 19 1.0 20 1.0
 18
 19
 20 21 1.0 22 1.0 23 1.0
 21
 22
 23 24 1.0 25 1.0 26 1.0
 24
 25
 26 27 1.0 28 1.0 29 1.0
 27
 28
 29

