%chk=E:\hetanjin\GithubFiles\DBGCWebapp\demoForLocal\python\Gjfs\banana_031.chk
# hf/3-21g geom=connectivity

Title Card Required

0 1
 C                 -3.77551027    0.20408163    0.00000000
 H                 -3.41885584   -0.80472837    0.00000000
 H                 -3.41883743    0.70847982   -0.87365150
 H                 -4.84551027    0.20409481    0.00000000
 C                 -3.26216805    0.93003790    1.25740497
 H                 -3.61722440    1.93941099    1.25642745
 H                 -3.62043716    0.42676947    2.13105486
 C                 -1.72217065    0.92758155    1.25881364
 H                 -1.36390217    1.43052343    0.38497547
 H                 -1.36711442   -0.08179114    1.26016738
 C                 -1.20882817    1.65400687    2.51594759
 H                 -1.56716498    1.15111257    3.38978513
 H                 -1.56381654    2.66340338    2.51455266
 C                  0.33116900    1.65144746    2.51741591
 H                  0.68950495    2.15433401    1.64357355
 H                  0.68615760    0.64205104    2.51881957
 C                  0.84451151    2.37788348    3.77454365
 H                  0.48617327    1.87499766    4.64838548
 H                  0.48952459    3.38728049    3.77313924
 C                  2.38450868    2.37532187    3.77601325
 H                  2.74284608    2.87820893    2.90217178
 H                  2.74118172    2.88005185    4.64947302
 H                  2.73949583    1.36592494    3.77741602

 1 2 1.0 3 1.0 4 1.0 5 1.0
 2
 3
 4
 5 6 1.0 7 1.0 8 1.0
 6
 7
 8 9 1.0 10 1.0 11 1.0
 9
 10
 11 12 1.0 13 1.0 14 1.0
 12
 13
 14 15 1.0 16 1.0 17 1.0
 15
 16
 17 18 1.0 19 1.0 20 1.0
 18
 19
 20 21 1.0 22 1.0 23 1.0
 21
 22
 23

