%chk=E:\hetanjin\GithubFiles\DBGCWebapp\demoForLocal\python\Gjfs\banana_046.chk
# hf/3-21g geom=connectivity

Title Card Required

0 1
 C                 -2.58503406   -0.51020407    0.00000000
 C                 -4.12503406   -0.51018510    0.00000000
 H                 -4.48168798    0.49862508    0.00000013
 H                 -4.48170662   -1.01458371   -0.87365137
 H                 -4.48170713   -1.01458351    0.87365128
 C                 -2.07171834   -1.96213623    0.00000000
 H                 -2.42839055   -2.46653419   -0.87365189
 H                 -1.00171834   -1.96214887    0.00000116
 H                 -2.42839188   -2.46653520    0.87365077
 C                 -2.07169184    0.21575220   -1.25740497
 H                 -2.42994277    1.22399588   -1.25838371
 H                 -1.00169361    0.21743326   -1.25642719
 H                 -2.42676648   -0.28977459   -2.13105517
 C                 -2.07169184    0.21575220    1.25740497
 H                 -1.00169185    0.21560965    1.25747994
 C                 -2.58520992   -0.51008100    2.51480918
 H                 -2.22906384   -1.51907056    2.51464655
 H                 -2.22815108   -0.00595594    3.38846066
 H                 -3.65520977   -0.50952895    2.51497093
 C                 -2.58483167    1.66774652    1.25729727
 H                 -2.22733614    2.17226290    0.38405037
 H                 -3.65483131    1.66816406    1.25652369
 C                 -2.07212465    2.39314482    2.51528329
 H                 -2.04892511    3.44750209    2.33447256
 H                 -2.72525478    2.18651502    3.33724750
 H                 -1.08596268    2.04942761    2.74818466

 1 2 1.0 6 1.0 10 1.0 14 1.0
 2 3 1.0 4 1.0 5 1.0
 3
 4
 5
 6 7 1.0 8 1.0 9 1.0
 7
 8
 9
 10 11 1.0 12 1.0 13 1.0
 11
 12
 13
 14 15 1.0 16 1.0 20 1.0
 15
 16 17 1.0 18 1.0 19 1.0
 17
 18
 19
 20 21 1.0 22 1.0 23 1.0
 21
 22
 23 24 1.0 25 1.0 26 1.0
 24
 25
 26

