%chk=E:\hetanjin\GithubFiles\DBGCWebapp\demoForLocal\python\Gjfs\banana_035.chk
# hf/3-21g geom=connectivity

Title Card Required

0 1
 C                 -0.64625851   -0.81632652    0.00000000
 C                 -0.13291630   -0.09037024    1.25740497
 H                 -0.48797264    0.91900285    1.25642745
 H                 -0.49118541   -0.59363868    2.13105486
 H                  0.93708190   -0.09207693    1.25838372
 C                 -0.13294280   -2.26825867    0.00000000
 H                 -0.48930736   -2.77254787    0.87384020
 H                  0.93705713   -2.26827188   -0.00037752
 C                 -2.18625851   -0.81630754    0.00000000
 H                 -2.54293107   -1.32048504   -0.87377900
 H                 -2.54293159   -1.32092703    0.87352361
 C                 -0.13291630   -0.09037024   -1.25740497
 H                  0.93708369   -0.09021256   -1.25730599
 H                 -0.48942833   -0.59488303   -2.13105594
 H                 -0.48973158    0.91838287   -1.25750410
 C                 -2.69957350    0.63562482    0.00036763
 H                 -2.34453063    1.13937315    0.87505739
 H                 -2.34143745    1.14078862   -0.87224231
 H                 -3.76957181    0.63546386   -0.00152668
 C                 -0.64672861   -2.99437177   -1.25713321
 H                 -0.20432281   -3.96702214   -1.31306509
 H                 -1.71120224   -3.08922068   -1.20422211
 H                 -0.38164167   -2.43137941   -2.12757477

 1 2 1.0 6 1.0 9 1.0 12 1.0
 2 3 1.0 4 1.0 5 1.0
 3
 4
 5
 6 7 1.0 8 1.0 20 1.0
 7
 8
 9 10 1.0 11 1.0 16 1.0
 10
 11
 12 13 1.0 14 1.0 15 1.0
 13
 14
 15
 16 17 1.0 18 1.0 19 1.0
 17
 18
 19
 20 21 1.0 22 1.0 23 1.0
 21
 22
 23

