%chk=E:\hetanjin\GithubFiles\DBGCWebapp\demoForLocal\python\Gjfs\banana_034.chk
# hf/3-21g geom=connectivity

Title Card Required

0 1
 C                 -0.91836736   -0.47619047    0.00000000
 H                 -0.56171294   -1.48500047    0.00000000
 H                 -0.56169452    0.02820772   -0.87365150
 C                 -0.40502514    0.24976580    1.25740497
 H                 -0.76008149    1.25913889    1.25642745
 H                 -0.76329425   -0.25350263    2.13105486
 C                  1.13497225    0.24730945    1.25881364
 H                  1.49324074    0.75025133    0.38497547
 H                  1.49164528    0.75203354    2.13227684
 H                  1.49002849   -0.76206324    1.26016738
 C                 -2.45836736   -0.47617149    0.00000000
 C                 -2.97170992   -1.20268544    1.25708270
 H                 -2.98159766   -0.52255685    2.08305324
 H                 -3.96335968   -1.56369101    1.08043129
 H                 -2.32684531   -2.02659393    1.48119079
 C                 -2.97168235    0.97576077    0.00064385
 H                 -2.37545810    1.56514439   -0.66421975
 H                 -3.99119597    0.99376668   -0.32365194
 H                 -2.90504673    1.37718092    0.99025062
 C                 -2.97170918   -1.20157088   -1.25772649
 H                 -2.61730176   -2.21117205   -1.25679962
 H                 -4.04170561   -1.19917592   -1.25910164
 H                 -2.61279255   -0.69837568   -2.13115276

 1 2 1.0 3 1.0 4 1.0 11 1.0
 2
 3
 4 5 1.0 6 1.0 7 1.0
 5
 6
 7 8 1.0 9 1.0 10 1.0
 8
 9
 10
 11 12 1.0 16 1.0 20 1.0
 12 13 1.0 14 1.0 15 1.0
 13
 14
 15
 16 17 1.0 18 1.0 19 1.0
 17
 18
 19
 20 21 1.0 22 1.0 23 1.0
 21
 22
 23

