%chk=E:\hetanjin\GithubFiles\DBGCWebapp\demoForLocal\python\Gjfs\banana_073.chk
# hf/3-21g geom=connectivity

Title Card Required

0 2
 C                 -5.64577476   -0.74829931   -0.07390724
 H                 -5.28912033   -1.75710931   -0.07390724
 H                 -5.28910192   -0.24390112   -0.94755874
 H                 -6.71577476   -0.74828612   -0.07390724
 C                 -5.13243254   -0.02234303    1.18349773
 H                 -5.48907136    0.98647248    1.18348818
 H                 -5.48912104   -0.52673051    2.05714903
 C                 -3.59243254   -0.02238635    1.18351130
 H                 -3.23574435    0.48032228    0.30889277
 H                 -3.23579407   -1.03120012    1.18545800
 C                 -3.07909024    0.70598327    2.43951981
 H                 -3.43613987    0.20352942    3.31413726
 H                 -3.43536778    1.71492411    2.43735218
 C                 -1.53909039    0.70539005    2.43985233
 H                 -1.18204161    1.20782755    1.56522513
 H                 -1.18281262   -0.30355067    2.44203861
 C                 -1.02574808    1.43378270    3.69584748
 H                 -1.38280058    0.93134694    4.57047415
 H                 -1.38202273    2.44272451    3.69365958
 C                  0.51425177    1.43318509    3.69618255
 H                  0.87130343    1.93562667    2.82155887
 H                  0.87052666    0.42424334    3.69836353
 C                  1.02759407    2.16156896    4.95218279
 H                  0.67054301    1.65912606    5.82680595
 H                  0.67131798    3.17051028    4.95000283
 C                  2.56759392    2.16097354    4.95251659
 H                  2.92464414    2.66341919    4.07789466
 H                  2.92387025    1.15203229    4.95469317
 C                  3.08093623    2.88935303    6.20851937
 H                  2.72388660    2.38690607    7.08314078
 H                  4.15093612    2.88894086    6.20875041

 1 2 1.0 3 1.0 4 1.0 5 1.0
 2
 3
 4
 5 6 1.0 7 1.0 8 1.0
 6
 7
 8 9 1.0 10 1.0 11 1.0
 9
 10
 11 12 1.0 13 1.0 14 1.0
 12
 13
 14 15 1.0 16 1.0 17 1.0
 15
 16
 17 18 1.0 19 1.0 20 1.0
 18
 19
 20 21 1.0 22 1.0 23 1.0
 21
 22
 23 24 1.0 25 1.0 26 1.0
 24
 25
 26 27 1.0 28 1.0 29 1.0
 27
 28
 29 30 1.0 31 1.0
 30
 31

