%chk=E:\hetanjin\GithubFiles\DBGCWebapp\demoForLocal\python\Gjfs\banana_048.chk
# hf/3-21g geom=connectivity

Title Card Required

0 1
 C                 -3.02721094   -0.74829931    0.00000000
 H                 -2.67055651   -1.75710931    0.00000000
 H                 -2.67053810   -0.24390112   -0.87365150
 H                 -4.09721094   -0.74828612    0.00000000
 C                 -2.51386872   -0.02234303    1.25740497
 H                 -2.87213768   -0.52561103    2.13105517
 C                 -0.97387132   -0.02479994    1.25881307
 H                 -0.61560299    0.47814135    0.38497449
 C                 -0.46052811    0.70162586    2.51594643
 H                 -0.81886491    0.19873225    3.38978438
 C                  1.07946907    0.69906568    2.51741431
 H                  1.43780502    1.20195169    1.64357164
 H                  1.43614262    1.20379738    3.39087288
 H                  1.43445716   -0.31033092    2.51881828
 C                 -0.46285633   -1.47754213    1.26076201
 H                 -0.82103031   -1.98044986    2.13465858
 H                 -0.81962486   -1.98229959    0.38735712
 H                  0.60714196   -1.47924932    1.26162448
 C                 -3.02488470    1.43039944    1.25599826
 H                 -2.97374638    1.82743783    2.24829125
 H                 -2.41700857    2.02168297    0.60348742
 H                 -4.03895560    1.45145008    0.91523870
 C                 -0.97144522    2.15440240    2.51393808
 H                 -1.08315136    2.49180231    1.50468933
 H                 -1.91723567    2.20055286    3.01218558
 H                 -0.26893632    2.78024831    3.02354394

 1 2 1.0 3 1.0 4 1.0 5 1.0
 2
 3
 4
 5 6 1.0 7 1.0 19 1.0
 6
 7 8 1.0 9 1.0 15 1.0
 8
 9 10 1.0 11 1.0 23 1.0
 10
 11 12 1.0 13 1.0 14 1.0
 12
 13
 14
 15 16 1.0 17 1.0 18 1.0
 16
 17
 18
 19 20 1.0 21 1.0 22 1.0
 20
 21
 22
 23 24 1.0 25 1.0 26 1.0
 24
 25
 26

