%chk=E:\hetanjin\GithubFiles\DBGCWebapp\demoForLocal\python\Gjfs\banana_075.chk
# hf/3-21g geom=connectivity

Title Card Required

0 2
 C                 -6.56462596   -0.71428570    0.00000000
 H                 -6.20797154   -1.72309571    0.00000000
 H                 -6.20795312   -0.20988751   -0.87365150
 H                 -7.63462596   -0.71427252    0.00000000
 C                 -6.05128375    0.01167057    1.25740497
 H                 -6.40777880    1.02053690    1.25730739
 H                 -6.40811600   -0.49261524    2.13105625
 C                 -4.51128377    0.01140780    1.25754524
 H                 -4.15445180    0.51566099    0.38387502
 H                 -4.15478907   -0.99745864    1.25768017
 C                 -3.99794154    0.73741078    2.51492324
 H                 -4.35477991    0.23316121    3.38859295
 H                 -4.35443048    1.74627926    2.51478507
 C                 -2.45794158    0.73713955    2.51506840
 H                 -2.10110406    1.24138860    1.64139805
 H                 -2.10145241   -0.27172885    2.51520698
 C                 -1.94459935    1.46314285    3.77244622
 H                 -2.30143627    0.95889249    4.64611605
 H                 -2.30108972    2.47201083    3.77230867
 C                 -0.40459938    1.46287382    3.77259011
 H                 -0.04776330    1.96712540    2.89892064
 H                 -0.04810877    0.45400592    3.77272605
 C                  0.10874285    2.18887492    5.02996919
 H                 -0.24809264    1.68462201    5.90363815
 C                  1.64874282    2.18860808    5.03011182
 H                  2.00557746    2.69286221    4.15644323
 H                  2.00523486    1.17974069    5.03024511
 C                  2.16208505    2.91460699    6.28749217
 H                  1.80525100    2.41035154    7.16116024
 H                  3.23208503    2.91442311    6.28759039
 H                  1.80559180    3.92347395    6.28735990

 1 2 1.0 3 1.0 4 1.0 5 1.0
 2
 3
 4
 5 6 1.0 7 1.0 8 1.0
 6
 7
 8 9 1.0 10 1.0 11 1.0
 9
 10
 11 12 1.0 13 1.0 14 1.0
 12
 13
 14 15 1.0 16 1.0 17 1.0
 15
 16
 17 18 1.0 19 1.0 20 1.0
 18
 19
 20 21 1.0 22 1.0 23 1.0
 21
 22
 23 24 1.0 25 1.0
 24
 25 26 1.0 27 1.0 28 1.0
 26
 27
 28 29 1.0 30 1.0 31 1.0
 29
 30
 31

