%chk=E:\hetanjin\GithubFiles\DBGCWebapp\demoForLocal\python\Gjfs\banana_021.chk
# hf/3-21g geom=connectivity

Title Card Required

0 1
 C                  0.47614968    1.32653059   -0.00623314
 H                  1.00931343    0.39882567   -0.00623314
 C                  1.15142399    2.50150789   -0.00623314
 H                  0.61826024    3.42921281   -0.00623314
 C                  2.69142399    2.50150789   -0.00623314
 H                  3.04809034    3.51031368   -0.00623503
 H                  3.04809034    1.99710641    0.86741911
 H                  3.04809084    1.99710356   -0.87988354
 C                 -1.06385032    1.32653059   -0.00623314
 H                 -1.42051667    1.82923859    0.86839466
 H                 -1.42051718    1.83262651   -0.87890471
 C                 -1.57718320   -0.12539276   -0.00904870
 H                 -1.22058550   -0.63146402    0.86366544
 H                 -1.22044707   -0.62812515   -0.88363402
 C                 -3.11718319   -0.12539253   -0.00917121
 H                 -3.47378003    0.38059363   -0.88193504
 H                 -3.47384955   -1.13419660   -0.01102841
 H                 -3.47391954    0.37742558    0.86536474

 1 2 1.0 3 2.0 9 1.0
 2
 3 4 1.0 5 1.0
 4
 5 6 1.0 7 1.0 8 1.0
 6
 7
 8
 9 10 1.0 11 1.0 12 1.0
 10
 11
 12 13 1.0 14 1.0 15 1.0
 13
 14
 15 16 1.0 17 1.0 18 1.0
 16
 17
 18

