%chk=E:\hetanjin\GithubFiles\DBGCWebapp\demoForLocal\python\Gjfs\banana_070.chk
# hf/3-21g geom=connectivity

Title Card Required

0 1
 C                 -5.30612254   -0.91836733    0.00000000
 H                 -4.94946812   -1.92717734    0.00000000
 H                 -4.94944970   -0.41396914   -0.87365150
 H                 -6.37612254   -0.91835415    0.00000000
 C                 -4.79278032   -0.19241106    1.25740497
 H                 -5.14943352    0.81639938    1.25740422
 H                 -5.14945445   -0.69680870    2.13105626
 C                 -3.25278032   -0.19243243    1.25740586
 H                 -2.89610647    0.31196612    0.38375498
 H                 -2.89612746   -1.20124298    1.25740524
 C                 -2.73943810    0.53352230    2.51481172
 H                 -3.09611259    0.02912330    3.38846209
 H                 -3.09609094    1.54233286    2.51481262
 C                 -1.19943810    0.53350126    2.51481243
 H                 -0.84276398    1.03620474    1.64018521
 C                 -0.68609585    1.26189345    3.77080787
 H                 -1.04319147    0.75948785    4.64543426
 H                 -1.04232741    2.27085043    3.76859391
 C                  0.85390396    1.26123014    3.77118112
 H                  1.21099873    1.76362611    2.89654885
 H                  1.21013574    0.25227327    3.77340597
 C                  1.36724622    1.98963573    5.02716879
 H                  1.01014198    1.48724556    5.90180053
 H                  1.01102330    2.99859571    5.02493879
 C                  2.90724603    1.98895926    5.02754968
 H                  3.26434942    2.49135832    4.15292270
 H                  3.26391889    2.49505008    5.90022175
 H                  3.26346918    0.97999933    5.02976922
 C                 -0.68612507   -0.91842912    2.51762691
 H                 -1.04113991   -1.42054373    3.39326689
 H                 -1.04445584   -1.42510306    1.64597298
 H                  0.38387300   -0.91844889    2.51559637

 1 2 1.0 3 1.0 4 1.0 5 1.0
 2
 3
 4
 5 6 1.0 7 1.0 8 1.0
 6
 7
 8 9 1.0 10 1.0 11 1.0
 9
 10
 11 12 1.0 13 1.0 14 1.0
 12
 13
 14 15 1.0 16 1.0 29 1.0
 15
 16 17 1.0 18 1.0 19 1.0
 17
 18
 19 20 1.0 21 1.0 22 1.0
 20
 21
 22 23 1.0 24 1.0 25 1.0
 23
 24
 25 26 1.0 27 1.0 28 1.0
 26
 27
 28
 29 30 1.0 31 1.0 32 1.0
 30
 31
 32

