%chk=E:\hetanjin\GithubFiles\DBGCWebapp\demoForLocal\python\Gjfs\banana_091.chk
# hf/3-21g geom=connectivity

Title Card Required

0 1
 C                 -3.77551027   -0.03401360    0.00000000
 H                 -3.24234652   -0.96171853    0.00000000
 H                 -4.84551027   -0.03401360    0.00000000
 C                 -3.10023596    1.14096369    0.00000000
 H                 -3.63339971    2.06866861    0.00000000
 C                 -1.56023596    1.14096369    0.00000000
 H                 -1.20356961    0.63825570    0.87462780
 H                 -1.20356911    0.63486777   -0.87267157
 C                 -1.04690309    2.59288705   -0.00281556
 H                 -1.40343790    3.09893615    0.86993712
 H                 -1.40370208    3.09564174   -0.87736241
 C                  0.49309690    2.59288660   -0.00304890
 H                  0.84963085    2.08693086   -0.87585605
 H                  0.84989611    2.09003793    0.87144383
 C                  1.00642980    4.04481024   -0.00570815
 H                  0.64962039    4.54766224   -0.88019481
 H                  0.64990541    4.55076225    0.86710507
 C                  2.54642977    4.04480977   -0.00595886
 H                  2.90295388    3.53886599   -0.87877697
 H                  2.90323884    3.54194908    0.86852295
 C                  3.05976268    5.49673343   -0.00860397
 H                  2.70295471    5.99959344   -0.88308661
 H                  2.70323685    6.00267745    0.86421331
 C                  4.59976266    5.49673296   -0.00885214
 H                  4.95628820    4.99079122   -0.88167084
 H                  4.95657028    4.99387024    0.86562908
 C                  5.11309556    6.94865664   -0.01149302
 H                  4.75802654    7.45090244   -0.88703579
 H                  4.75483256    7.45521036    0.86025864
 C                  6.65309298    6.94866264   -0.00867749
 H                  7.01135515    6.44158948   -0.88012745
 H                  7.00816111    6.44693749    0.86716411
 C                  7.16642747    8.40058393   -0.01218257
 H                  6.80816323    8.90765691    0.85926664
 H                  8.23642567    8.40058810   -0.01022482
 H                  6.81136079    8.90230880   -0.88802491

 1 2 1.0 3 1.0 4 2.0
 2
 3
 4 5 1.0 6 1.0
 5
 6 7 1.0 8 1.0 9 1.0
 7
 8
 9 10 1.0 11 1.0 12 1.0
 10
 11
 12 13 1.0 14 1.0 15 1.0
 13
 14
 15 16 1.0 17 1.0 18 1.0
 16
 17
 18 19 1.0 20 1.0 21 1.0
 19
 20
 21 22 1.0 23 1.0 24 1.0
 22
 23
 24 25 1.0 26 1.0 27 1.0
 25
 26
 27 28 1.0 29 1.0 30 1.0
 28
 29
 30 31 1.0 32 1.0 33 1.0
 31
 32
 33 34 1.0 35 1.0 36 1.0
 34
 35
 36

