%chk=E:\hetanjin\GithubFiles\DBGCWebapp\demoForLocal\python\Gjfs\banana_033.chk
# hf/3-21g geom=connectivity

Title Card Required

0 1
 C                 -3.87721881    0.30612244   -0.05075557
 H                 -3.52054597    0.81052063    0.82289593
 H                 -3.52054597    0.81052063   -0.92440708
 H                 -4.94721881    0.30613563   -0.05075557
 C                 -3.36390309   -1.14580971   -0.05075557
 H                 -3.72057674   -1.65020818   -0.92440658
 H                 -3.72057519   -1.65020817    0.82289607
 C                 -1.82390309   -1.14582791   -0.05075643
 H                 -1.46723129   -0.64312482   -0.92538483
 H                 -1.46722977   -0.63973552    0.82191454
 C                 -1.31058738   -2.59775733   -0.04794001
 H                 -1.66762653   -3.10397833   -0.92038677
 C                  0.22941249   -2.59777683   -0.04858520
 H                  0.58645079   -2.09153830    0.82385173
 H                  0.58571921   -2.09522082   -0.92344689
 C                  0.74272822   -4.04970619   -0.04574061
 H                  0.38568614   -4.55594515   -0.91817575
 H                  1.81272812   -4.04971975   -0.04619248
 H                  0.38642465   -4.55226133    0.82912286
 C                 -1.82340234   -3.32108690    1.21119268
 H                 -1.52714055   -2.77453053    2.08205724
 H                 -2.89093043   -3.38473199    1.17607758
 H                 -1.40844235   -4.30657117    1.25029478

 1 2 1.0 3 1.0 4 1.0 5 1.0
 2
 3
 4
 5 6 1.0 7 1.0 8 1.0
 6
 7
 8 9 1.0 10 1.0 11 1.0
 9
 10
 11 12 1.0 13 1.0 20 1.0
 12
 13 14 1.0 15 1.0 16 1.0
 14
 15
 16 17 1.0 18 1.0 19 1.0
 17
 18
 19
 20 21 1.0 22 1.0 23 1.0
 21
 22
 23

