%mem=15GB
%nprocshared=6
#p M062X/def2TZVP

using B3LYP/6-31G(d) to do opt and freq calc.

0 2
C	2.232553	-0.939223	0.031860
H	2.028100	-1.932974	-0.384587
H	2.318840	-1.044645	1.120942
H	3.202941	-0.602218	-0.348217
C	1.114217	0.057061	-0.333168
H	1.066364	0.129735	-1.430228
C	-0.261331	-0.486870	0.145442
H	-0.249507	-0.561344	1.242999
H	-0.378327	-1.513853	-0.232184
C	-1.465359	0.352946	-0.296729
H	-1.462358	0.440369	-1.393012
H	-1.358316	1.374517	0.091315
C	-2.804314	-0.232405	0.163803
H	-2.851616	-0.300900	1.257722
H	-3.646562	0.386074	-0.167274
H	-2.955734	-1.242714	-0.236357
C	1.409278	1.417709	0.217525
H	1.208541	2.323580	-0.345128
H	1.727374	1.529062	1.251610





