%nprocshared=12
%mem=30GB
# opt freq b3lyp/6-311++g(d,p)

Title Card Required

0 1
 C                 -3.89331200   -0.17515923    0.00000000
 H                 -3.53665758   -1.18396924    0.00000000
 H                 -3.53663916    0.32923896   -0.87365150
 H                 -4.96331200   -0.17514605    0.00000000
 C                 -3.37996978    0.55079704    1.25740497
 H                 -3.73823875    0.04752904    2.13105517
 C                 -1.83997239    0.54834014    1.25881307
 H                 -1.48170405    1.05128143    0.38497449
 H                 -1.48491651   -0.46103268    1.26016721
 C                 -1.32662917    1.27476594    2.51594643
 H                 -1.68496598    0.77187233    3.38978438
 H                 -1.68161704    2.28416262    2.51455102
 C                  0.21336800    1.27220575    2.51741431
 H                  0.57170395    1.77509177    1.64357164
 H                  0.57004155    1.77693745    3.39087288
 H                  0.56835609    0.26280916    2.51881828
 C                 -3.89098577    2.00353951    1.25599826
 H                 -3.84242877    2.39967038    2.24878351
 H                 -3.28141754    2.59542031    0.60561092
 H                 -4.90416744    2.02490042    0.91262294

