%mem=15GB
%nprocshared=6
#p M062X/def2TZVP

using B3LYP/6-31G(d) to do opt and freq calc.

0 2
C	1.607523	-0.000003	-1.033606
H	1.950574	0.929080	-1.481403
H	1.950571	-0.929087	-1.481402
C	0.486427	0.000000	-0.032598
C	-0.863036	0.000003	-0.827380
H	-0.865944	-0.877352	-1.488295
H	-0.865944	0.877360	-1.488291
C	-2.153729	0.000001	0.004429
H	-2.230911	0.885308	0.644936
H	-3.027080	0.000001	-0.658308
H	-2.230910	-0.885309	0.644933
C	0.592421	-1.262443	0.849753
H	-0.191172	-1.289316	1.614874
H	0.504477	-2.173940	0.245303
H	1.560401	-1.293500	1.362687
C	0.592427	1.262442	0.849753
H	1.560408	1.293496	1.362685
H	0.504485	2.173940	0.245304
H	-0.191164	1.289318	1.614876





