%mem=28GB
%nprocshared=12
%chk=C6H14_3_00_1_opt_B3L.chk
#p B3LYP/6-31G(d) opt freq

using B3LYP/6-31G(d) to do opt and freq calc.

0 1
C	-2.585432	-0.173073	-0.291851
H	-2.569463	-0.210638	-1.388478
H	-2.798667	0.860562	0.001553
H	-3.426358	-0.788593	0.047903
C	-1.264296	-0.681118	0.297504
H	-1.305087	-0.618240	1.395359
H	-1.161916	-1.749281	0.059911
C	0.000000	0.051171	-0.198826
H	0.000000	0.001396	-1.300324
C	1.264302	-0.681109	0.297508
H	1.161925	-1.749272	0.059918
H	1.305094	-0.618227	1.395362
C	2.585438	-0.173067	-0.291851
H	2.798686	0.860561	0.001567
H	3.426361	-0.788600	0.047886
H	2.569461	-0.210616	-1.388478
C	-0.000012	1.533367	0.207284
H	-0.880957	2.058929	-0.175879
H	0.000009	1.636043	1.301009
H	0.880901	2.058954	-0.175915






