%mem=28GB
%nprocshared=12
%chk=C6H14_2_00_1_opt_B3L.chk
#p B3LYP/6-31G(d) opt freq

using B3LYP/6-31G(d) to do opt and freq calc.

0 1
C	2.158795	-1.038263	0.033292
H	1.927533	-2.029220	-0.375566
H	2.248000	-1.140771	1.122904
H	3.140067	-0.736397	-0.352086
C	1.075128	-0.013246	-0.333942
H	1.027368	0.044919	-1.432842
C	-0.305207	-0.482861	0.167105
H	-0.293649	-0.515776	1.267932
H	-0.461370	-1.520582	-0.163410
C	-1.498622	0.360983	-0.301937
H	-1.481225	0.432686	-1.399145
H	-1.403319	1.388404	0.072469
C	-2.846191	-0.213217	0.149104
H	-2.906210	-0.270582	1.243060
H	-3.681826	0.405537	-0.197700
H	-2.996731	-1.226895	-0.242527
C	1.452040	1.379337	0.194906
H	0.736885	2.147560	-0.117982
H	1.487579	1.382705	1.292645
H	2.441242	1.682010	-0.168923






