%mem=15GB
%nprocshared=6
#p M062X/def2TZVP

using B3LYP/6-31G(d) to do opt and freq calc.

0 2
C	2.230935	-0.881485	0.089174
H	2.136636	-1.894770	-0.319684
H	2.282479	-0.967051	1.182674
H	3.186194	-0.467808	-0.255225
C	1.054240	0.007438	-0.335704
H	1.042664	0.048917	-1.436145
C	-0.290945	-0.602163	0.115133
H	-0.329844	-0.620451	1.216800
H	-0.305185	-1.668508	-0.187537
C	-1.500482	0.094555	-0.421176
H	-1.450098	0.488722	-1.435812
C	-2.844194	-0.058976	0.210780
H	-2.785050	0.004842	1.306150
H	-3.548566	0.706003	-0.136208
H	-3.304869	-1.038853	-0.015273
C	1.227081	1.439393	0.189962
H	0.393925	2.080352	-0.118550
H	1.264250	1.447979	1.287546
H	2.157653	1.888058	-0.177745





