%mem=15GB
%nprocshared=6
#p PM6 opt 

using PM6 to do opt and freq calc.

0 1
C    1.8744    1.9012    0.7765
H    1.8807    1.5686    1.8393
H    1.0227    2.5992    0.6141
H    2.8203    2.4511    0.5692
C    1.7712    0.6972    -0.1588
H    1.7157    1.0567    -1.2125
H    2.7072    0.101    -0.0533
C    0.5817    -0.2288    0.1348
H    0.6414    -0.5824    1.1908
H    0.6804    -1.1199    -0.5282
C    -0.7893    0.4181    -0.112
H    -0.815    0.8429    -1.1427
H    -0.9415    1.2468    0.6174
C    -1.9351    -0.5896    0.0424
H    -1.9029    -1.0397    1.0619
H    -1.8157    -1.4064    -0.707
C    -3.3024    0.0585    -0.159
H    -3.3731    0.5077    -1.1758
H    -4.0994    -0.7118    -0.0527
H    -3.47    0.8525    0.6041





