%mem=15GB
%nprocshared=6
#p PM6 opt 

using PM6 to do opt and freq calc.

0 1
C    -1.4226    -1.2911    0.4191
H    -0.7194    -1.9952    0.9195
H    -1.7422    -1.7318    -0.552
H    -2.3231    -1.1879    1.0672
C    -0.7581    0.081    0.2154
H    -0.5877    0.484    1.2422
C    0.6385    -0.0262    -0.4679
H    1.2268    -0.7777    0.1107
C    0.6051    -0.5245    -1.9231
H    0.0766    0.2006    -2.5819
H    1.6435    -0.6519    -2.3064
H    0.0984    -1.5123    -1.9934
C    -1.7386    1.0451    -0.4746
H    -1.3028    2.0655    -0.5543
H    -2.0032    0.6844    -1.494
H    -2.6766    1.1264    0.1213
C    1.4425    1.2819    -0.3763
H    0.9984    2.0734    -1.0211
H    1.4726    1.6491    0.6748
H    2.4919    1.1103    -0.7093





