%mem=15GB
%nprocshared=6
#p B3LYP/6-31G(d) opt=tight int=ultrafine

using B3LYP/6-31G(d) to do opt and freq calc.

0 1
C	2.150165	-1.028734	0.015649
H	1.931998	-2.011946	-0.413515
H	2.252757	-1.156654	1.098444
H	3.125501	-0.712223	-0.368691
C	1.057451	-0.007729	-0.332751
H	0.983562	0.057242	-1.447037
C	-0.303697	-0.478702	0.222287
H	-0.310536	-0.392286	1.324837
H	-0.436821	-1.556664	0.008878
C	-1.480369	0.307327	-0.371443
H	-1.468496	0.225630	-1.475880
H	-1.363745	1.385914	-0.146507
C	-2.820985	-0.188237	0.167341
H	-2.878876	-0.088528	1.257110
H	-3.654093	0.380969	-0.259357
H	-2.987152	-1.244259	-0.073454
C	1.433101	1.378291	0.207482
H	0.670449	2.123645	-0.042479
H	1.538018	1.371354	1.297579
H	2.383438	1.724507	-0.211322





