%mem=15GB
%nprocshared=6
#p PM6 opt 

using PM6 to do opt and freq calc.

0 1
C    1.72    2.0972    -0.7378
H    1.7828    1.6824    -1.7694
H    1.9687    1.298    -0.0045
H    2.4738    2.9102    -0.6348
C    0.3247    2.6617    -0.4723
H    0.2664    3.0134    0.5839
H    0.1859    3.5492    -1.1325
C    -0.82    1.6774    -0.7552
H    -0.7358    1.3041    -1.8024
H    -1.7704    2.2523    -0.6734
C    -0.8742    0.4867    0.216
H    -0.9584    0.86    1.2632
H    0.0762    -0.0882    0.1341
C    -2.0189    -0.4976    -0.067
H    -1.8801    -1.3851    0.5933
H    -1.9607    -0.8493    -1.1231
C    -3.4142    0.0669    0.1986
H    -3.6629    0.8661    -0.5346
H    -4.168    -0.7461    0.0956
H    -3.477    0.4816    1.2303





