%mem=15GB
%nprocshared=6
#p PM6 opt 

using PM6 to do opt and freq calc.

0 1
C    3.1948    -0.2125    -0.0
H    3.2708    -0.8536    -0.9078
H    3.2708    -0.8536    0.9078
H    4.0438    0.508    0.0
C    1.8744    0.5533    -0.0
H    1.8415    1.2046    0.9043
H    1.8415    1.2046    -0.9043
C    0.6625    -0.3862    -0.0
H    0.7056    -1.0367    0.9051
H    0.7056    -1.0367    -0.9051
C    -0.6625    0.3862    -0.0
H    -0.7056    1.0367    -0.9051
H    -0.7056    1.0367    0.9051
C    -1.8744    -0.5533    -0.0
H    -1.8415    -1.2046    0.9043
H    -1.8415    -1.2046    -0.9043
C    -3.1948    0.2125    -0.0
H    -3.2708    0.8536    -0.9078
H    -4.0438    -0.508    0.0
H    -3.2708    0.8536    0.9078





