%mem=15GB
%nprocshared=6
#p B3LYP/6-31G(d) opt=tight int=ultrafine

using B3LYP/6-31G(d) to do opt and freq calc.

0 1
C	-2.586150	0.857128	-0.258401
H	-2.731262	0.719780	-1.335794
H	-1.908252	1.708567	-0.127865
H	-3.553523	1.136642	0.172568
C	-2.031483	-0.405334	0.398161
H	-1.937288	-0.247862	1.490506
H	-2.758654	-1.232693	0.276286
C	-0.677987	-0.837078	-0.185128
H	-0.735785	-0.856034	-1.290449
H	-0.465231	-1.879449	0.122402
C	0.471381	0.076121	0.261368
H	0.528075	0.098181	1.366327
H	0.264243	1.118640	-0.048097
C	1.815457	-0.383183	-0.321062
H	1.759551	-0.401058	-1.427019
H	2.022983	-1.426253	-0.012152
C	2.962460	0.522732	0.121898
H	3.069488	0.533727	1.212467
H	3.917028	0.187482	-0.298395
H	2.806562	1.558023	-0.201798





