%mem=15GB
%nprocshared=6
#p PM6 opt 

using PM6 to do opt and freq calc.

0 1
C    -1.5344    -1.2508    -0.0426
H    -1.0768    -2.1681    0.3896
H    -1.6022    -1.3644    -1.1488
H    -2.5664    -1.1828    0.372
C    -0.7114    -0.0001    0.3235
H    -0.5926    -0.0002    1.433
C    0.7113    -0.0001    -0.3234
H    0.5925    0.0    -1.4329
C    1.5343    1.2506    0.0427
H    1.6021    1.3643    1.1489
H    2.5663    1.1826    -0.3718
H    1.0768    2.1679    -0.3896
C    -1.5341    1.251    -0.0423
H    -1.0763    2.168    0.39
H    -1.6021    1.3647    -1.1485
H    -2.566    1.1831    0.3725
C    1.534    -1.2512    0.0424
H    1.602    -1.3649    1.1486
H    1.0762    -2.1682    -0.3899
H    2.5659    -1.1833    -0.3724





