%mem=28GB
%nprocshared=12
%chk=C6H14_4_r005_C5_2_opt_B3L.chk
#p B3LYP/6-31G(d) opt freq

using B3LYP/6-31G(d) to do opt and freq calc.

0 2
C	-1.513139	1.285417	-0.032083
H	-1.036099	2.088161	-0.607571
H	-1.620792	1.671390	0.999653
H	-2.526735	1.152838	-0.426327
C	-0.737694	-0.000003	-0.077613
C	0.718114	-0.000008	0.345830
H	0.738994	-0.000018	1.456020
C	1.482440	-1.259385	-0.106092
H	1.482864	-1.345874	-1.200007
H	2.525734	-1.211752	0.226308
H	1.048640	-2.176720	0.304112
C	-1.513162	-1.285409	-0.032062
H	-1.036156	-2.088163	-0.607562
H	-1.620796	-1.671379	0.999677
H	-2.526767	-1.152810	-0.426278
C	1.482428	1.259384	-0.106067
H	1.482869	1.345883	-1.199981
H	1.048604	2.176708	0.304138
H	2.525717	1.211765	0.226352






