%mem=28GB
%nprocshared=12
%chk=C6H14_5_r009_C13_2_opt_B3L.chk
#p B3LYP/6-31G(d) opt freq

using B3LYP/6-31G(d) to do opt and freq calc.

0 2
C	-1.638632	0.784503	-0.553063
H	-1.628780	0.725613	-1.649784
H	-1.600623	1.842949	-0.270586
H	-2.592070	0.375448	-0.200146
C	-0.438501	0.001622	0.049119
C	0.869134	0.647858	-0.488009
H	0.870103	1.706604	-0.191653
H	0.834025	0.640583	-1.586681
C	2.175142	-0.001296	-0.016757
H	2.276168	-1.029121	-0.382319
H	3.040564	0.562677	-0.383376
H	2.231787	-0.030404	1.077430
C	-0.494828	0.103373	1.546598
H	-0.178170	1.014826	2.047775
H	-1.040351	-0.627770	2.136852
C	-0.549095	-1.474104	-0.387621
H	-1.505421	-1.901999	-0.063148
H	-0.496271	-1.565056	-1.479607
H	0.249719	-2.086081	0.043636






