%mem=28GB
%nprocshared=12
%chk=C6H14_5_r004_C17_2_opt_B3L.chk
#p B3LYP/6-31G(d) opt freq

using B3LYP/6-31G(d) to do opt and freq calc.

0 2
C	1.638633	0.784499	-0.553066
H	1.600630	1.842943	-0.270585
H	1.628777	0.725612	-1.649787
H	2.592068	0.375434	-0.200152
C	0.438500	0.001620	0.049118
C	-0.869131	0.647851	-0.488021
H	-0.834022	0.640558	-1.586694
H	-0.870101	1.706601	-0.191682
C	-2.175140	-0.001296	-0.016757
H	-2.231779	-0.030391	1.077432
H	-3.040563	0.562674	-0.383377
H	-2.276168	-1.029123	-0.382307
C	0.549096	-1.474109	-0.387605
H	-0.249713	-2.086086	0.043662
H	0.496268	-1.565074	-1.479589
H	1.505424	-1.901999	-0.063131
C	0.494823	0.103392	1.546596
H	1.040352	-0.627744	2.136856
H	0.178149	1.014844	2.047765






