%mem=28GB
%nprocshared=12
%chk=C6H14_2_r007_C10_2_opt_B3L.chk
#p B3LYP/6-31G(d) opt freq

using B3LYP/6-31G(d) to do opt and freq calc.

0 2
C	2.230940	-0.881477	0.089178
H	2.136648	-1.894763	-0.319679
H	2.282483	-0.967040	1.182678
H	3.186195	-0.467793	-0.255221
C	1.054240	0.007438	-0.335704
H	1.042662	0.048912	-1.436145
C	-0.290943	-0.602171	0.115137
H	-0.329843	-0.620452	1.216803
H	-0.305173	-1.668517	-0.187527
C	-1.500481	0.094537	-0.421182
H	-1.450098	0.488669	-1.435831
C	-2.844192	-0.058967	0.210782
H	-2.785046	0.004879	1.306150
H	-3.548558	0.706008	-0.136225
H	-3.304877	-1.038847	-0.015242
C	1.227072	1.439396	0.189956
H	0.393911	2.080350	-0.118553
H	1.264244	1.447985	1.287540
H	2.157639	1.888068	-0.177754






