%mem=28GB
%nprocshared=12
%chk=C6H14_4_r012_C9_2_opt_B3L.chk
#p B3LYP/6-31G(d) opt freq

using B3LYP/6-31G(d) to do opt and freq calc.

0 2
C	1.399242	-1.325905	0.051188
H	0.880041	-2.215747	-0.317725
H	1.494135	-1.418934	1.141435
H	2.411981	-1.340045	-0.369240
C	0.677975	-0.022520	-0.327815
H	0.533351	-0.016339	-1.419302
C	-0.743448	0.085659	0.321646
H	-0.588276	0.084774	1.412212
C	-1.435874	1.360203	-0.053671
H	-1.912025	1.455879	-1.026697
H	-1.397915	2.244359	0.574127
C	1.552331	1.185926	0.040627
H	1.092346	2.128358	-0.273914
H	1.712491	1.236851	1.126152
H	2.537719	1.115220	-0.434957
C	-1.639808	-1.118430	-0.035543
H	-1.764420	-1.201232	-1.123260
H	-1.226010	-2.063871	0.328842
H	-2.635927	-0.998869	0.403733






