%mem=28GB
%nprocshared=12
%chk=C6H14_2_r003_C5_2_opt_B3L.chk
#p B3LYP/6-31G(d) opt freq

using B3LYP/6-31G(d) to do opt and freq calc.

0 2
C	1.908643	-1.242186	-0.124562
H	1.288146	-2.124925	-0.322846
H	2.516071	-1.479729	0.769477
H	2.619954	-1.135867	-0.955281
C	1.080766	-0.008834	0.062972
C	-0.325974	-0.108574	0.583019
H	-0.504793	0.663288	1.349261
H	-0.478704	-1.076785	1.081995
C	-1.409541	0.048496	-0.512090
H	-1.261631	-0.728106	-1.274342
H	-1.265697	1.009843	-1.023482
C	-2.834975	-0.033132	0.043039
H	-3.017017	0.753680	0.785700
H	-3.581131	0.079955	-0.751924
H	-3.014838	-0.997636	0.534084
C	1.736654	1.333117	-0.048412
H	1.002686	2.138203	-0.177676
H	2.325034	1.586045	0.853833
H	2.438479	1.378712	-0.892592






