%mem=28GB
%nprocshared=12
%chk=C6H14_2_r011_C13_2_opt_B3L.chk
#p B3LYP/6-31G(d) opt freq

using B3LYP/6-31G(d) to do opt and freq calc.

0 2
C	2.101117	-1.033535	0.053932
H	1.873696	-2.034669	-0.331316
H	2.198092	-1.110784	1.144855
H	3.077715	-0.733686	-0.344812
C	1.008936	-0.023345	-0.329505
H	0.952583	0.009127	-1.429019
C	-0.363639	-0.493771	0.193080
H	-0.354266	-0.492710	1.292808
H	-0.519068	-1.538279	-0.109961
C	-1.572317	0.342695	-0.305569
H	-1.534211	0.373071	-1.404936
H	-1.461503	1.378023	0.041017
C	-2.888372	-0.199171	0.143469
H	-3.322317	0.099227	1.093220
H	-3.347415	-1.038932	-0.370619
C	1.379578	1.382962	0.165772
H	0.658709	2.140248	-0.160501
H	1.421379	1.411218	1.262844
H	2.364786	1.683123	-0.210651






