%mem=28GB
%nprocshared=12
%chk=C6H14_2_r009_C13_2_opt_B3L.chk
#p B3LYP/6-31G(d) opt freq

using B3LYP/6-31G(d) to do opt and freq calc.

0 2
C	2.110810	-1.019561	0.005483
H	1.894310	-2.003554	-0.427272
H	2.204339	-1.147193	1.092036
H	3.085938	-0.692211	-0.374476
C	1.010091	-0.003132	-0.334296
H	0.957764	0.079507	-1.431406
C	-0.359222	-0.508756	0.160644
H	-0.349399	-0.553269	1.260668
H	-0.500039	-1.542388	-0.184069
C	-1.570767	0.322278	-0.298350
H	-1.565296	0.406327	-1.395994
H	-1.459683	1.359991	0.067277
C	-2.877100	-0.235389	0.159374
H	-2.953359	-0.760534	1.107525
H	-3.801959	0.011505	-0.352768
C	1.367620	1.382215	0.226235
H	0.638839	2.147131	-0.062778
H	1.410680	1.359250	1.323392
H	2.349273	1.709510	-0.136668






