%mem=28GB
%nprocshared=12
%chk=C6H14_3_r013_C5_2_opt_B3L.chk
#p B3LYP/6-31G(d) opt freq

using B3LYP/6-31G(d) to do opt and freq calc.

0 2
C	2.620762	-0.332642	0.300546
H	2.534296	-0.367579	1.395175
H	3.076235	0.644958	0.056533
H	3.345682	-1.096197	-0.006392
C	1.296779	-0.530532	-0.361168
H	1.284770	-0.899853	-1.386601
C	0.030941	0.073895	0.175212
H	0.058615	0.001532	1.275660
C	-1.204534	-0.710621	-0.319532
H	-1.036104	-1.776605	-0.117204
H	-1.268407	-0.615111	-1.413729
C	-2.536239	-0.286903	0.309849
H	-2.804188	0.744232	0.054714
H	-3.352607	-0.931754	-0.035283
H	-2.497692	-0.359390	1.404140
C	-0.058833	1.580711	-0.175735
H	0.829339	2.118051	0.174749
H	-0.128886	1.721403	-1.261632
H	-0.934310	2.052867	0.284840






