%mem=28GB
%nprocshared=12
%chk=C6H14_1_r009_C1_2_opt_B3L.chk
#p B3LYP/6-31G(d) opt freq

using B3LYP/6-31G(d) to do opt and freq calc.

0 2
C	-3.266493	0.213781	-0.002809
H	-3.357728	1.187643	0.470495
H	-4.179280	-0.266275	-0.341658
C	-1.968920	-0.521784	0.018381
H	-1.895905	-1.139223	0.935374
H	-1.934745	-1.244014	-0.811001
C	-0.735076	0.395381	-0.043743
H	-0.782968	1.116001	0.785991
H	-0.776042	0.990096	-0.966864
C	0.594227	-0.366132	0.019296
H	0.639505	-1.089053	-0.809118
H	0.628724	-0.962567	0.943502
C	1.826391	0.545860	-0.039606
H	1.782042	1.267670	0.788414
H	1.791890	1.141247	-0.963074
C	3.150612	-0.222188	0.023277
H	3.239917	-0.927419	-0.812316
H	4.010096	0.456514	-0.020894
H	3.230054	-0.800131	0.952378






