%mem=28GB
%nprocshared=12
%chk=C6H14_4_r003_C1_2_opt_B3L.chk
#p B3LYP/6-31G(d) opt freq

using B3LYP/6-31G(d) to do opt and freq calc.

0 2
C	1.435874	1.360203	-0.053662
H	1.397882	2.244373	0.574115
H	1.912054	1.455869	-1.026676
C	0.743449	0.085657	0.321647
H	0.588275	0.084765	1.412213
C	-0.677975	-0.022521	-0.327816
H	-0.533347	-0.016345	-1.419303
C	-1.399242	-1.325904	0.051193
H	-1.494142	-1.418924	1.141440
H	-2.411978	-1.340048	-0.369242
H	-0.880038	-2.215748	-0.317708
C	1.639809	-1.118426	-0.035548
H	1.226009	-2.063872	0.328826
H	1.764428	-1.201219	-1.123266
H	2.635926	-0.998870	0.403734
C	-1.552333	1.185923	0.040620
H	-1.712493	1.236853	1.126146
H	-1.092356	2.128358	-0.273927
H	-2.537721	1.115211	-0.434961






