%mem=28GB
%nprocshared=12
%chk=C6H14_3_r010_C13_2_opt_B3L.chk
#p B3LYP/6-31G(d) opt freq

using B3LYP/6-31G(d) to do opt and freq calc.

0 2
C	-2.529437	-0.148337	-0.278319
H	-2.525700	-0.153449	-1.375660
H	-2.724949	0.878869	0.048090
H	-3.374277	-0.763255	0.052572
C	-1.208405	-0.688815	0.281128
H	-1.237509	-0.658873	1.380742
H	-1.118001	-1.750058	0.009474
C	0.053747	0.049889	-0.205312
H	0.054862	0.018540	-1.307147
C	1.327981	-0.684965	0.275517
H	1.209900	-1.759917	0.037365
H	1.382242	-0.637766	1.373477
C	2.597666	-0.176203	-0.319881
H	2.642051	0.092710	-1.372203
H	3.535348	-0.217374	0.225078
C	0.075027	1.522973	0.228681
H	-0.768486	2.084982	-0.185895
H	0.026968	1.605247	1.323022
H	0.998081	2.013085	-0.099805






