%mem=28GB
%nprocshared=12
%chk=C6H14_3_r008_C17_2_opt_B3L.chk
#p B3LYP/6-31G(d) opt freq

using B3LYP/6-31G(d) to do opt and freq calc.

0 2
C	2.578532	-0.097399	0.293411
H	2.583515	-0.160919	1.388801
H	2.712331	0.956195	0.023441
H	3.447470	-0.654143	-0.075943
C	1.275301	-0.657174	-0.284740
H	1.310933	-0.614889	-1.383317
H	1.186342	-1.720480	-0.022541
C	0.005505	0.082242	0.199155
H	0.000169	0.058219	1.300322
C	-1.266311	-0.675663	-0.277601
H	-1.171645	-1.729681	0.019884
H	-1.291521	-0.665368	-1.376416
C	-2.577490	-0.107693	0.272879
H	-2.728359	0.929485	-0.046643
H	-3.436917	-0.693670	-0.072629
H	-2.585481	-0.122035	1.370156
C	-0.000536	1.512257	-0.244275
H	0.206196	1.758743	-1.283594
H	-0.323035	2.319126	0.405503






