%mem=28GB
%nprocshared=12
%chk=C6H14_2_r014_C1_2_opt_B3L.chk
#p B3LYP/6-31G(d) opt freq

using B3LYP/6-31G(d) to do opt and freq calc.

0 2
C	2.156742	-1.096863	0.031323
H	1.908097	-2.154491	0.042352
H	3.204228	-0.825520	0.127397
C	1.124076	-0.070398	-0.312312
H	1.054586	-0.004423	-1.417475
C	-0.273824	-0.500717	0.191155
H	-0.267115	-0.511970	1.291025
H	-0.449140	-1.540413	-0.121951
C	-1.440067	0.362816	-0.307508
H	-1.412101	0.408598	-1.405941
H	-1.320499	1.395721	0.044248
C	-2.805209	-0.165939	0.145955
H	-2.874889	-0.195978	1.240352
H	-3.621560	0.466120	-0.222011
H	-2.979171	-1.184178	-0.223411
C	1.539004	1.323217	0.195447
H	0.848425	2.102499	-0.143005
H	1.565683	1.344187	1.291904
H	2.539130	1.587146	-0.167844






