%mem=28GB
%nprocshared=12
%chk=C6H14_4_02_1_opt_PM6.chk
#p B3LYP/6-31G(d) opt freq

using B3LYP/6-31G(d) to do opt and freq calc.

0 1
C	-0.961933	1.174024	0.873504
H	-0.158777	1.899015	1.043179
H	-1.033619	0.547250	1.768776
H	-1.900344	1.731602	0.789075
C	-0.700476	0.337699	-0.384242
H	-0.733598	1.027774	-1.266202
C	0.700476	-0.337699	-0.384243
H	0.733597	-1.027774	-1.266202
C	1.807222	0.709901	-0.569803
H	1.829768	1.424306	0.260419
H	2.793850	0.237409	-0.619124
H	1.669444	1.281826	-1.492874
C	-1.807222	-0.709902	-0.569803
H	-1.669457	-1.281810	-1.492886
H	-1.829752	-1.424321	0.260408
H	-2.793853	-0.237412	-0.619100
C	0.961933	-1.174023	0.873504
H	1.033625	-0.547249	1.768775
H	0.158775	-1.899011	1.043183
H	1.900341	-1.731606	0.789072






