%mem=28GB
%nprocshared=12
%chk=C6H14_2_03_1_opt_PM6.chk
#p B3LYP/6-31G(d) opt freq

using B3LYP/6-31G(d) to do opt and freq calc.

0 1
C	2.002804	-1.039445	-0.115071
H	1.675799	-2.077043	-0.236932
H	2.471487	-0.954497	0.870941
H	2.780608	-0.850840	-0.862438
C	0.831775	-0.058816	-0.272484
H	0.378093	-0.214236	-1.283381
C	-0.247122	-0.343349	0.794393
H	0.121908	-0.025407	1.787795
H	-0.408477	-1.435597	0.873758
C	-1.585265	0.349622	0.501745
H	-1.411907	1.419451	0.270003
H	-2.206957	0.338362	1.418866
C	-2.355921	-0.306834	-0.641998
H	-2.594472	-1.352662	-0.418802
H	-3.299973	0.213631	-0.835202
H	-1.776725	-0.296854	-1.572979
C	1.333862	1.388538	-0.186142
H	0.509000	2.101013	-0.298141
H	1.815639	1.592928	0.775588
H	2.065181	1.603456	-0.971732






