%mem=28GB
%nprocshared=12
%chk=C6H14_1_06_1_opt_PM6.chk
#p B3LYP/6-31G(d) opt freq

using B3LYP/6-31G(d) to do opt and freq calc.

0 1
C	3.002158	-0.349089	0.106836
H	3.067173	-0.455142	1.195565
H	3.500557	0.589388	-0.160763
H	3.581125	-1.166214	-0.337479
C	1.553200	-0.374016	-0.375013
H	1.524186	-0.302787	-1.479748
H	1.091737	-1.349404	-0.124364
C	0.728388	0.764799	0.241219
H	1.195526	1.736849	-0.010733
H	0.761401	0.697140	1.345552
C	-0.728388	0.764798	-0.241220
H	-0.761401	0.697137	-1.345553
H	-1.195526	1.736850	0.010729
C	-1.553201	-0.374013	0.375016
H	-1.524190	-0.302778	1.479750
H	-1.091736	-1.349403	0.124374
C	-3.002157	-0.349090	-0.106837
H	-3.067168	-0.455131	-1.195568
H	-3.581121	-1.166223	0.337466
H	-3.500563	0.589381	0.160770






