%mem=28GB
%nprocshared=12
%chk=C6H14_1_04_1_opt_PM6.chk
#p B3LYP/6-31G(d) opt freq

using B3LYP/6-31G(d) to do opt and freq calc.

0 1
C	2.962469	0.522776	0.121835
H	3.069335	0.534160	1.212421
H	2.806670	1.557961	-0.202259
H	3.917088	0.187324	-0.298189
C	1.815490	-0.383240	-0.320975
H	1.759582	-0.401291	-1.426931
H	2.023049	-1.426260	-0.011909
C	0.471402	0.076106	0.261396
H	0.264322	1.118647	-0.048045
H	0.528042	0.098135	1.366362
C	-0.677985	-0.837022	-0.185187
H	-0.465242	-1.879435	0.122207
H	-0.735798	-0.855844	-1.290513
C	-2.031463	-0.405320	0.398179
H	-1.937207	-0.247796	1.490514
H	-2.758604	-1.232719	0.276399
C	-2.586228	0.857084	-0.258404
H	-2.731526	0.719639	-1.335764
H	-3.553529	1.136647	0.172704
H	-1.908295	1.708530	-0.128062






