%mem=28GB
%nprocshared=12
%chk=C6H14_5_00_1_opt_PM6.chk
#p B3LYP/6-31G(d) opt freq

using B3LYP/6-31G(d) to do opt and freq calc.

0 1
C	0.495821	-0.885984	1.258952
H	-0.325070	-1.609868	1.280578
H	0.429859	-0.287148	2.172276
H	1.431543	-1.451632	1.301699
C	0.431716	-0.001572	-0.000002
C	-0.863051	0.856182	0.000738
H	-0.851080	1.525632	-0.881124
H	-0.850978	1.524244	0.883655
C	-2.157408	0.047876	0.000066
H	-2.230305	-0.600070	0.880972
H	-3.031513	0.708564	0.005000
H	-2.234263	-0.592116	-0.886276
C	1.642230	0.957697	-0.001334
H	1.643351	1.602849	-0.884846
H	1.644443	1.603949	0.881371
H	2.586533	0.404421	-0.001575
C	0.493807	-0.886949	-1.258336
H	1.430292	-1.451187	-1.303105
H	-0.325961	-1.612156	-1.277149
H	0.424463	-0.288985	-2.171979






