%mem=28GB
%nprocshared=12
%chk=C6H14_1_10_1_opt_PM6.chk
#p B3LYP/6-31G(d) opt freq

using B3LYP/6-31G(d) to do opt and freq calc.

0 1
C	-2.749863	-0.473388	-0.080497
H	-2.359493	-1.408750	0.336609
H	-2.876452	-0.625817	-1.158194
H	-3.744027	-0.310217	0.349297
C	-1.819790	0.701841	0.213828
H	-2.265517	1.632780	-0.189608
H	-1.746349	0.855138	1.308304
C	-0.416719	0.518197	-0.382695
H	0.111720	1.491610	-0.379448
H	-0.496160	0.224403	-1.446815
C	0.416719	-0.518196	0.382696
H	-0.111720	-1.491609	0.379450
H	0.496160	-0.224402	1.446816
C	1.819789	-0.701842	-0.213827
H	1.746347	-0.855139	-1.308304
H	2.265517	-1.632780	0.189608
C	2.749863	0.473387	0.080496
H	2.876455	0.625816	1.158192
H	3.744027	0.310216	-0.349299
H	2.359493	1.408749	-0.336609






