%mem=28GB
%nprocshared=12
%chk=C6H14_3_03_1_opt_PM6.chk
#p B3LYP/6-31G(d) opt freq

using B3LYP/6-31G(d) to do opt and freq calc.

0 1
C	-2.183800	-0.940457	-0.200870
H	-2.040203	-1.300711	-1.225716
H	-2.799204	-0.035067	-0.255500
H	-2.763044	-1.699053	0.336829
C	-0.850232	-0.672361	0.492650
H	-1.027109	-0.350478	1.536421
H	-0.277923	-1.619102	0.564081
C	0.000664	0.384269	-0.244308
H	0.000463	0.141753	-1.335300
C	1.460995	0.360190	0.260506
H	1.477750	0.410936	1.365780
H	1.984679	1.272458	-0.086672
C	2.226753	-0.871700	-0.216144
H	2.286266	-0.911062	-1.309705
H	3.251937	-0.874177	0.169868
H	1.746740	-1.799560	0.117780
C	-0.588452	1.789806	-0.062767
H	-1.629746	1.827653	-0.401500
H	-0.576210	2.102287	0.986566
H	-0.029966	2.535640	-0.637333






