%mem=28GB
%nprocshared=12
%chk=C6H14_1_02_1_opt_PM6.chk
#p B3LYP/6-31G(d) opt freq

using B3LYP/6-31G(d) to do opt and freq calc.

0 1
C	2.586275	0.857047	-0.258405
H	1.908345	1.708510	-0.128149
H	2.731643	0.719547	-1.335749
H	3.553552	1.136617	0.172754
C	2.031448	-0.405316	0.398205
H	2.758570	-1.232740	0.276488
H	1.937153	-0.247746	1.490530
C	0.677982	-0.836998	-0.185203
H	0.465222	-1.879412	0.122171
H	0.735822	-0.855807	-1.290529
C	-0.471406	0.076140	0.261357
H	-0.264351	1.118662	-0.048167
H	-0.528008	0.098249	1.366324
C	-1.815508	-0.383269	-0.320932
H	-2.023052	-1.426262	-0.011760
H	-1.759632	-0.401424	-1.426889
C	-2.962481	0.522781	0.121825
H	-2.806687	1.557942	-0.202350
H	-3.917107	0.187297	-0.298163
H	-3.069332	0.534247	1.212412






