%mem=28GB
%nprocshared=12
%chk=C6H14_4_01_1_opt_PM6.chk
#p B3LYP/6-31G(d) opt freq

using B3LYP/6-31G(d) to do opt and freq calc.

0 1
C	-1.807222	0.709909	-0.569789
H	-1.669466	1.281813	-1.492875
H	-1.829741	1.424320	0.260426
H	-2.793855	0.237423	-0.619078
C	-0.700475	-0.337697	-0.384244
H	-0.733603	-1.027763	-1.266214
C	0.700475	0.337697	-0.384244
H	0.733604	1.027763	-1.266214
C	0.961932	1.174037	0.873493
H	1.033544	0.547278	1.768779
H	1.900379	1.731560	0.789089
H	0.158818	1.899087	1.043111
C	-0.961932	-1.174037	0.873494
H	-0.158823	-1.899093	1.043106
H	-1.033535	-0.547278	1.768781
H	-1.900383	-1.731553	0.789093
C	1.807222	-0.709909	-0.569789
H	1.829729	-1.424332	0.260417
H	1.669476	-1.281800	-1.492885
H	2.793857	-0.237426	-0.619059






