%mem=28GB
%nprocshared=12
%chk=C6H14_5_02_1_opt_PM6.chk
#p B3LYP/6-31G(d) opt freq

using B3LYP/6-31G(d) to do opt and freq calc.

0 1
C	-0.494136	-0.886527	1.258610
H	-0.425022	-0.288260	2.172074
H	0.325625	-1.611732	1.277871
H	-1.430636	-1.450743	1.303325
C	-0.431711	-0.001568	0.000000
C	0.863073	0.856163	-0.000713
H	0.851102	1.525618	0.881144
H	0.851042	1.524220	-0.883638
C	2.157415	0.047846	-0.000049
H	2.231242	-0.598543	-0.882016
H	3.031528	0.708536	-0.002879
H	2.233325	-0.593703	0.885250
C	-0.495557	-0.886387	-1.258670
H	-0.429358	-0.287851	-2.172173
H	0.325297	-1.610319	-1.279873
H	-1.431295	-1.452012	-1.301440
C	-1.642194	0.957722	0.000744
H	-2.586505	0.404464	0.000722
H	-1.643612	1.603000	0.884161
H	-1.644073	1.603833	-0.882062






