%mem=15GB
%nprocshared=6
#p M062X/def2TZVP

using B3LYP/6-31G(d) to do opt and freq calc.

0 2
C	-1.638635	-0.784503	-0.553056
H	-1.600636	-1.842944	-0.270564
H	-1.628780	-0.725628	-1.649779
H	-2.592070	-0.375432	-0.200147
C	-0.438500	-0.001621	0.049118
C	0.869128	-0.647857	-0.488015
H	0.834018	-0.640578	-1.586689
H	0.870098	-1.706603	-0.191663
C	2.175138	0.001293	-0.016760
H	2.231778	0.030401	1.077429
H	3.040560	-0.562682	-0.383374
H	2.276167	1.029117	-0.382321
C	-0.549093	1.474106	-0.387619
H	0.249720	2.086083	0.043641
H	-0.496266	1.565059	-1.479604
H	-1.505419	1.902000	-0.063147
C	-0.494820	-0.103376	1.546597
H	-0.178146	-1.014822	2.047777
H	-1.040334	0.627774	2.136854





