#p b3lyp/6-31g(d) opt freq

this is the .gjf file generated from Forg output which is used to save the coordinate of different coformers

0 1
C    -2.5511    -0.242    -0.3718
H    -2.4303    -0.3363    -1.475
H    -2.8437    0.8016    -0.1213
H    -3.3749    -0.9173    -0.0468
C    -1.2577    -0.6384    0.343
H    -1.3885    -0.4821    1.4393
H    -1.1271    -1.7328    0.1726
C    0.0078    0.1068    -0.1474
H    0.0456    0.021    -1.2593
C    1.2724    -0.5828    0.4192
H    1.2293    -1.6709    0.1779
H    1.2927    -0.4839    1.5297
C    2.596    -0.0637    -0.1462
H    2.8054    0.9671    0.2167
H    3.4276    -0.7227    0.1922
H    2.5721    -0.0655    -1.2596
C    -0.0373    1.6037    0.2119
H    -0.9381    2.0907    -0.2215
H    -0.0516    1.741    1.3173
H    0.8455    2.1368    -0.2049






