#p b3lyp/6-31g(d) opt freq

this is the .gjf file generated from Forg output which is used to save the coordinate of different coformers

0 1
C    1.148    2.681    -0.6818
H    0.4476    3.2262    -1.3545
H    1.4145    1.7035    -1.1426
H    2.0792    3.2819    -0.5741
C    0.5149    2.474    0.6934
H    1.2199    1.8991    1.3377
H    0.3708    3.476    1.1602
C    -0.8465    1.7648    0.656
H    -1.5387    2.3461    0.0041
H    -1.2601    1.7781    1.6914
C    -0.7758    0.3073    0.17
H    0.0377    -0.2166    0.7241
H    -0.5204    0.2839    -0.9145
C    -2.0716    -0.4856    0.3932
H    -2.3426    -0.465    1.4743
H    -1.8807    -1.5474    0.1126
C    -3.2578    0.0138    -0.4305
H    -2.999    0.0327    -1.5135
H    -4.1248    -0.6691    -0.2829
H    -3.5587    1.0352    -0.1064






