#p b3lyp/6-31g(d) opt freq

this is the .gjf file generated from Forg output which is used to save the coordinate of different coformers

0 1
C    -2.5191    -0.6561    -0.4647
H    -2.2703    -1.3364    -1.3093
H    -2.8709    0.3194    -0.8686
H    -3.3516    -1.1122    0.1176
C    -1.3096    -0.4594    0.4526
H    -1.6211    0.2011    1.2953
H    -1.048    -1.448    0.8972
C    -0.048    0.1419    -0.2115
H    0.7036    0.2344    0.6084
C    -0.2999    1.5621    -0.7706
H    -0.8673    2.1554    -0.016
H    -0.9208    1.5041    -1.6944
C    0.9732    2.3457    -1.093
H    1.5334    1.8669    -1.9266
H    0.7019    3.3798    -1.4051
H    1.6299    2.4071    -0.1957
C    0.5598    -0.808    -1.2581
H    0.6586    -1.8356    -0.8398
H    -0.0744    -0.8526    -2.1721
H    1.5775    -0.4656    -1.5505






