#p b3lyp/6-31g(d) opt freq

this is the .gjf file generated from Forg output which is used to save the coordinate of different coformers

0 1
C    -2.6113    -0.1515    -0.5436
H    -2.4362    -0.119    -1.6429
H    -2.8355    0.8747    -0.1765
H    -3.4992    -0.7936    -0.3448
C    -1.393    -0.7334    0.1747
H    -1.5956    -0.7281    1.2707
H    -1.2988    -1.7963    -0.1489
C    -0.0665    0.0047    -0.1225
H    0.0135    0.1141    -1.2304
C    1.1722    -0.821    0.3
H    2.0939    -0.2727    -0.0053
H    1.1698    -1.7849    -0.2605
C    1.2836    -1.143    1.7923
H    0.4221    -1.7625    2.1278
H    2.2188    -1.7193    1.9751
H    1.3245    -0.2103    2.3975
C    -0.0367    1.4276    0.4619
H    -0.7999    2.0683    -0.0336
H    -0.2433    1.4136    1.5559
H    0.9586    1.8978    0.291






