#p b3lyp/6-31g(d) opt freq

this is the .gjf file generated from Forg output which is used to save the coordinate of different coformers

0 1
C    1.5545    0.7424    -0.7981
H    1.6905    1.7445    -0.3293
H    1.3246    0.8931    -1.8783
H    2.5228    0.1949    -0.726
C    0.4197    -0.0418    -0.0988
C    -0.8942    0.7826    -0.2402
H    -1.1041    0.9526    -1.3226
H    -0.7474    1.7856    0.2255
C    -2.1627    0.1809    0.3738
H    -2.0464    0.0318    1.4699
H    -3.014    0.8802    0.2104
H    -2.4178    -0.7892    -0.1072
C    0.2939    -1.423    -0.7794
H    -0.4485    -2.0644    -0.2531
H    -0.0281    -1.3108    -1.8403
H    1.2704    -1.9604    -0.7667
C    0.8069    -0.234    1.3846
H    1.7995    -0.7334    1.4723
H    0.8645    0.7489    1.9067
H    0.0639    -0.8704    1.9158






