#p b3lyp/6-31g(d) opt freq

this is the .gjf file generated from Forg output which is used to save the coordinate of different coformers

0 1
C    -2.6785    -0.1622    -0.0212
H    -2.9605    0.021    -1.0817
H    -2.6808    0.8032    0.534
H    -3.4477    -0.831    0.4276
C    -1.3063    -0.8322    0.0731
H    -1.1889    -1.1639    1.1316
H    -1.3071    -1.7446    -0.5679
C    -0.1104    0.075    -0.3056
H    -0.1778    1.0033    0.31
C    -0.1351    0.4793    -1.8
H    -1.0973    0.992    -2.0251
H    -0.0767    -0.4322    -2.4394
C    0.9728    1.447    -2.2209
H    1.9652    0.9438    -2.2048
H    0.7831    1.7999    -3.26
H    0.9956    2.3308    -1.5435
C    1.2036    -0.63    0.0775
H    1.183    -0.9454    1.1457
H    1.3638    -1.5313    -0.5578
H    2.0711    0.0563    -0.0438






