#p b3lyp/6-31g(d) opt freq

this is the .gjf file generated from Forg output which is used to save the coordinate of different coformers

0 1
C    1.5249    1.1353    0.6082
H    1.4564    0.7889    1.6646
H    0.9091    2.0552    0.4903
H    2.5873    1.3957    0.3973
C    1.0559    0.0288    -0.3475
H    1.778    -0.8141    -0.2309
C    -0.3322    -0.5423    0.0223
H    -0.2892    -0.911    1.0742
H    -0.5292    -1.4279    -0.6266
C    -1.5154    0.4312    -0.1118
H    -1.6208    0.7543    -1.1724
H    -1.343    1.3328    0.5183
C    -2.8333    -0.2052    0.3226
H    -2.7847    -0.5023    1.395
H    -3.6616    0.5277    0.1934
H    -3.0533    -1.1047    -0.2966
C    1.1514    0.4835    -1.8109
H    0.8045    -0.3273    -2.4912
H    0.5327    1.3922    -1.9882
H    2.2084    0.7241    -2.0674






