#p b3lyp/6-31g(d) opt freq

this is the .gjf file generated from Forg output which is used to save the coordinate of different coformers

0 1
C    2.0076    -2.5416    -0.5796
H    2.1697    -2.8105    0.4891
H    2.8278    -1.8668    -0.9153
H    2.0395    -3.4719    -1.1907
C    0.6535    -1.8593    -0.7573
H    0.5215    -1.6067    -1.8348
H    -0.1402    -2.5836    -0.4635
C    0.5332    -0.5851    0.091
H    1.4016    0.077    -0.1353
H    0.5826    -0.8523    1.1725
C    -0.7445    0.2254    -0.173
H    -0.7873    0.5039    -1.2519
H    -0.6703    1.168    0.4183
C    -2.0393    -0.4999    0.2205
H    -1.9662    -0.8528    1.2752
H    -2.1907    -1.3847    -0.4393
C    -3.2643    0.4021    0.0929
H    -3.368    0.7704    -0.9533
H    -4.1799    -0.1719    0.3617
H    -3.176    1.274    0.7804






