#p b3lyp/6-31g(d) opt freq

this is the .gjf file generated from Forg output which is used to save the coordinate of different coformers

0 1
C    2.1576    -1.0077    0.0603
H    1.9148    -2.0086    -0.3644
H    2.2525    -1.1017    1.1666
H    3.1398    -0.6886    -0.3578
C    1.0642    0.0073    -0.3058
H    1.0173    0.0505    -1.4197
C    -0.3086    -0.4644    0.2251
H    -0.3099    -0.4242    1.3399
H    -0.4583    -1.5283    -0.076
C    -1.5021    0.3404    -0.3127
H    -1.4851    0.3322    -1.4273
H    -1.4394    1.3963    0.0343
C    -2.8387    -0.2288    0.1575
H    -2.8988    -0.2062    1.2696
H    -3.6713    0.3834    -0.2572
H    -2.9599    -1.2789    -0.1938
C    1.4526    1.4038    0.2056
H    0.7403    2.173    -0.1667
H    1.4587    1.4267    1.3195
H    2.4666    1.683    -0.1619






