#p b3lyp/6-31g(d) opt freq

this is the .gjf file generated from Forg output which is used to save the coordinate of different coformers

0 1
C    -1.7375    -1.0483    -0.4709
H    -1.3031    -2.0698    -0.5413
H    -1.9978    -0.6943    -1.4937
H    -2.6778    -1.1238    0.1219
C    -0.7578    -0.0811    0.216
H    -0.5863    -0.4817    1.2437
C    0.6389    0.0267    -0.4675
H    1.2277    0.7761    0.1135
C    1.4418    -1.2822    -0.3806
H    0.9949    -2.0719    -1.0256
H    2.4902    -1.111    -0.7166
H    1.4748    -1.6513    0.6698
C    -1.4249    1.2902    0.4166
H    -0.7242    1.9959    0.9183
H    -1.7425    1.7291    -0.5559
H    -2.327    1.186    1.0622
C    0.6068    0.5297    -1.9212
H    0.0716    -0.1893    -2.5814
H    0.1079    1.5216    -1.9871
H    1.6453    0.6503    -2.3062






