%mem=28GB
%nprocshared=12
#p b3lyp/cbsb7 opt freq

using ub3lyp/6-31G(d) to scan

0 1
C	3.190340	-0.209781	0.000001
H	3.283836	-0.852248	-0.882993
H	3.283839	-0.852240	0.883000
H	4.046426	0.474197	-0.000004
C	1.870095	0.557934	-0.000001
H	1.825355	1.224204	0.883736
H	1.825356	1.224203	-0.883738
C	0.661417	-0.388503	-0.000001
H	0.707881	-1.055043	0.882486
H	0.707881	-1.055043	-0.882488
C	-0.661417	0.388503	0.000000
H	-0.707881	1.055044	-0.882487
H	-0.707881	1.055043	0.882487
C	-1.870095	-0.557934	0.000000
H	-1.825355	-1.224204	0.883737
H	-1.825356	-1.224203	-0.883737
C	-3.190340	0.209781	0.000000
H	-3.283837	0.852244	-0.882996
H	-4.046426	-0.474197	0.000000
H	-3.283837	0.852243	0.882997





