%mem=15GB
%nprocshared=6
#p M062X/def2TZVP

using B3LYP/6-31G(d) to do opt and freq calc.

0 2
C	1.984475	-1.209503	-0.026759
H	1.581095	-2.143237	-0.433908
H	2.115334	-1.345323	1.054667
H	2.976991	-1.046695	-0.463563
C	1.047556	-0.024592	-0.317217
H	0.948385	0.073526	-1.410163
C	-0.321046	-0.251670	0.255987
H	-0.384648	-0.713588	1.242762
C	-1.545106	0.423247	-0.276816
H	-1.475885	0.500752	-1.372640
H	-1.596321	1.470753	0.079397
C	-2.852639	-0.283035	0.111016
H	-2.957675	-0.342646	1.201084
H	-3.725194	0.252718	-0.279451
H	-2.877808	-1.305996	-0.281066
C	1.670734	1.296991	0.198626
H	1.031113	2.156433	-0.031254
H	1.809100	1.261971	1.286270
H	2.651668	1.472702	-0.261165





