%mem=28GB
%nprocshared=12
%chk=C6H14_3_r007_C13.chk
#p B3LYP/6-31G(d) opt freq

using B3LYP/6-31G(d) to do opt and freq calc.

0 2
C    -2.58543200    -0.17306300    -0.29184900 
H    -2.56945800    -0.21059200    -1.38847700 
H    -2.79867300    0.86056100    0.00158700 
H    -3.42635800    -0.78859700    0.04787800 
C    -1.26429800    -0.68112100    0.29750200 
H    -1.30508800    -0.61825200    1.39535700 
H    -1.16192300    -1.74928100    0.05989900 
C    0.00000100    0.05116600    -0.19882900 
H    0.00000300    0.00138800    -1.30032900 
C    1.26430000    -0.68111500    0.29750800 
H    1.16192700    -1.74927800    0.05991600 
H    1.30509200    -0.61823400    1.39536200 
C    2.58543300    -0.17306200    -0.29185100 
H    3.42636100    -0.78858800    0.04788600 
H    2.56945900    -0.21060900    -1.38847900 
C    -0.00000400    1.53336300    0.20728700 
H    -0.88093000    2.05893700    -0.17589700 
H    -0.00001200    1.63603700    1.30101200 
H    0.88092600    2.05893900    -0.17588500 






