%mem=15GB
%nprocshared=6
#p B3LYP/6-31G(d) opt=tight int=ultrafine

using B3LYP/6-31G(d) to do opt and freq calc.

0 1
C	1.423114	2.862631	0.000000
H	0.914667	3.265996	0.882967
H	0.914667	3.265996	-0.882967
H	2.444646	3.258594	0.000000
C	1.423114	1.335282	0.000000
H	1.976529	0.961706	-0.883555
H	1.976529	0.961706	0.883555
C	-0.003186	0.767178	0.000000
H	-0.555842	1.142787	-0.882284
H	-0.555842	1.142787	0.882284
C	0.003186	-0.767178	0.000000
H	0.555842	-1.142787	0.882284
H	0.555842	-1.142787	-0.882284
C	-1.423114	-1.335282	0.000000
H	-1.976529	-0.961706	-0.883555
H	-1.976529	-0.961706	0.883555
C	-1.423114	-2.862631	0.000000
H	-0.914667	-3.265996	0.882967
H	-2.444646	-3.258594	0.000000
H	-0.914667	-3.265996	-0.882967





