%mem=15GB
%nprocshared=6
#p PM6 opt 

using PM6 to do opt and freq calc.

0 1
 C                 -3.38375787   -0.07961783    0.00000000
 H                 -3.02710345   -1.08842784    0.00000000
 H                 -3.02708503    0.42478036   -0.87365150
 H                 -4.45375787   -0.07960465    0.00000000
 C                 -2.87041566    0.64633844    1.25740497
 C                 -1.33041826    0.64388154    1.25881307
 H                 -0.97214992    1.14682283    0.38497449
 H                 -0.97536239   -0.36549128    1.26016721
 C                 -0.81707504    1.37030734    2.51594643
 H                 -1.17541185    0.86741373    3.38978438
 H                  0.25292299    1.36852851    2.51696632
 H                 -1.17206291    2.37970402    2.51455102
 C                 -3.38143164    2.09908091    1.25599826
 H                 -3.34018077    2.49264309    2.25013466
 H                 -2.76710855    2.69264012    0.61164229
 H                 -4.39206205    2.12133210    0.90524042
 C                 -3.38605510   -0.07799120    2.51480806
 H                 -4.42016655   -0.32143027    2.38732896
 H                 -2.82407030   -0.97609695    2.66473857
 H                 -3.27219724    0.56028586    3.36600650





