%mem=15GB
%nprocshared=6
#p M062X/def2TZVP

using B3LYP/6-31G(d) to do opt and freq calc.

0 2
C	-2.597668	-0.176205	-0.319880
H	-2.642068	0.092655	-1.372215
H	-3.535341	-0.217337	0.225096
C	-1.327982	-0.684961	0.275519
H	-1.382242	-0.637762	1.373480
H	-1.209900	-1.759916	0.037375
C	-0.053749	0.049890	-0.205312
H	-0.054861	0.018536	-1.307147
C	1.208405	-0.688814	0.281129
H	1.117998	-1.750057	0.009473
H	1.237505	-0.658871	1.380742
C	2.529439	-0.148339	-0.278318
H	2.724955	0.878864	0.048096
H	3.374276	-0.763262	0.052573
H	2.525705	-0.153447	-1.375659
C	-0.075024	1.522975	0.228676
H	-0.998078	2.013088	-0.099808
H	-0.026962	1.605253	1.323017
H	0.768487	2.084980	-0.185906





