%mem=15GB
%nprocshared=6
#p M062X/def2TZVP

using B3LYP/6-31G(d) to do opt and freq calc.

0 2
C	3.172713	0.349723	-0.173119
H	3.325238	0.992898	0.702075
H	3.053589	1.000756	-1.046579
H	4.083066	-0.243716	-0.313568
C	1.943332	-0.550078	0.014292
H	1.830040	-1.211174	-0.859044
H	2.133800	-1.236103	0.863114
C	0.673240	0.207210	0.237373
H	0.733960	1.166321	0.752919
C	-0.670473	-0.435589	0.108880
H	-0.871278	-1.086577	0.983845
H	-0.673748	-1.119795	-0.754982
C	-1.829976	0.565362	-0.024908
H	-1.658780	1.195199	-0.908055
H	-1.818560	1.243172	0.840254
C	-3.200510	-0.109878	-0.128263
H	-3.409421	-0.721808	0.758099
H	-4.004586	0.629187	-0.219790
H	-3.253267	-0.768854	-1.003819





