%mem=15GB
%nprocshared=6
#p M062X/def2TZVP

using B3LYP/6-31G(d) to do opt and freq calc.

0 2
C	1.622401	1.132871	-0.027942
H	1.213063	2.059544	0.389037
H	1.716332	1.257374	-1.113784
H	2.630598	1.001417	0.379810
C	0.734287	-0.092965	0.311178
H	0.610195	-0.104793	1.406694
C	-0.683081	-0.000275	-0.317443
H	-0.554086	-0.048237	-1.410990
C	-1.552938	-1.193369	0.109852
H	-1.726792	-1.178147	1.194095
H	-2.531938	-1.163144	-0.382980
H	-1.077153	-2.148703	-0.135206
C	1.437674	-1.351543	-0.097302
H	1.345836	-1.728536	-1.113244
H	2.224570	-1.774608	0.520542
C	-1.401725	1.316761	0.014459
H	-1.484580	1.455871	1.100785
H	-0.886614	2.190225	-0.397326
H	-2.419135	1.312858	-0.394244





