%mem=15GB
%nprocshared=6
#p B3LYP/6-31G(d) opt=tight int=ultrafine

using B3LYP/6-31G(d) to do opt and freq calc.

0 1
C	3.002241	-0.348980	-0.106807
H	3.500518	0.589572	0.160756
H	3.067327	-0.455104	-1.195526
H	3.581278	-1.166007	0.337599
C	1.553257	-0.374041	0.374964
H	1.091893	-1.349465	0.124261
H	1.524187	-0.302841	1.479702
C	0.728364	0.764706	-0.241285
H	0.761280	0.696945	-1.345619
H	1.195489	1.736795	0.010535
C	-0.728364	0.764706	0.241284
H	-1.195491	1.736794	-0.010540
H	-0.761280	0.696950	1.345619
C	-1.553256	-0.374044	-0.374961
H	-1.091893	-1.349467	-0.124249
H	-1.524181	-0.302852	-1.479699
C	-3.002241	-0.348979	0.106805
H	-3.500519	0.589569	-0.160772
H	-3.581276	-1.166012	-0.337593
H	-3.067332	-0.455089	1.195525





