%mem=15GB
%nprocshared=6
#p M062X/def2TZVP

using B3LYP/6-31G(d) to do opt and freq calc.

0 2
C	1.584889	-0.722854	-0.784154
H	1.470325	-1.747608	-1.127751
H	2.583082	-0.293512	-0.809583
C	0.473707	-0.030682	-0.045358
C	-0.881641	-0.540653	-0.611963
H	-0.899137	-1.635608	-0.513846
H	-0.895267	-0.333638	-1.690758
C	-2.155710	0.031759	0.021075
H	-2.216795	1.119983	-0.090718
H	-3.042007	-0.395063	-0.462420
H	-2.225161	-0.199198	1.089768
C	0.594378	-0.369144	1.465991
H	-0.166357	0.156168	2.056494
H	0.477503	-1.445346	1.639185
H	1.576787	-0.072405	1.850539
C	0.613056	1.496207	-0.230572
H	1.601581	1.836711	0.100797
H	0.498690	1.777144	-1.284100
H	-0.135317	2.044577	0.352274





