%mem=15GB
%nprocshared=6
#p B3LYP/6-31G(d) opt=tight int=ultrafine

using B3LYP/6-31G(d) to do opt and freq calc.

0 1
C	2.150080	-1.028872	0.015511
H	1.931219	-2.012349	-0.412700
H	2.253555	-1.156004	1.098322
H	3.125179	-0.712949	-0.369909
C	1.057434	-0.007792	-0.332715
H	0.983453	0.057187	-1.447019
C	-0.303712	-0.478483	0.222569
H	-0.310440	-0.391623	1.325114
H	-0.436964	-1.556552	0.009681
C	-1.480386	0.307405	-0.371288
H	-1.468287	0.225824	-1.475771
H	-1.363935	1.386030	-0.146276
C	-2.821069	-0.188292	0.167125
H	-2.878839	-0.089694	1.257011
H	-3.654069	0.381601	-0.258876
H	-2.987597	-1.244024	-0.074737
C	1.433315	1.378242	0.207405
H	0.670841	2.123691	-0.042756
H	1.538094	1.371442	1.297528
H	2.383816	1.724168	-0.211259





