%mem=15GB
%nprocshared=6
#p M062X/def2TZVP

using B3LYP/6-31G(d) to do opt and freq calc.

0 2
C	2.578532	-0.097400	0.293412
H	2.583512	-0.160918	1.388801
H	2.712332	0.956193	0.023440
H	3.447471	-0.654145	-0.075938
C	1.275303	-0.657175	-0.284741
H	1.310935	-0.614889	-1.383317
H	1.186342	-1.720481	-0.022541
C	0.005504	0.082242	0.199155
H	0.000169	0.058217	1.300321
C	-1.266312	-0.675660	-0.277603
H	-1.171645	-1.729682	0.019873
H	-1.291523	-0.665358	-1.376418
C	-2.577491	-0.107695	0.272883
H	-2.728360	0.929486	-0.046630
H	-3.436918	-0.693669	-0.072628
H	-2.585479	-0.122044	1.370159
C	-0.000537	1.512257	-0.244277
H	-0.322989	2.319138	0.405510
H	0.206159	1.758735	-1.283605





