%mem=28GB
%nprocshared=12
#p b3lyp/cbsb7 opt freq

using ub3lyp/6-31G(d) to scan

0 1
C	2.150165	-1.028734	0.015616
H	1.931925	-2.011970	-0.413464
H	2.252882	-1.156591	1.098412
H	3.125482	-0.712287	-0.368827
C	1.057458	-0.007733	-0.332725
H	0.983523	0.057235	-1.447023
C	-0.303687	-0.478654	0.222376
H	-0.310549	-0.392033	1.324917
H	-0.436774	-1.556676	0.009228
C	-1.480374	0.307219	-0.371506
H	-1.468488	0.225329	-1.475943
H	-1.363756	1.385873	-0.146822
C	-2.820978	-0.188201	0.167339
H	-2.879114	-0.087765	1.257032
H	-3.654118	0.380556	-0.259899
H	-2.986927	-1.244422	-0.072757
C	1.433090	1.378300	0.207466
H	0.670692	2.123744	-0.042990
H	1.537470	1.371540	1.297624
H	2.383710	1.724286	-0.210882





