%mem=15GB
%nprocshared=6
#p PM6 opt 

using PM6 to do opt and freq calc.

0 1
C    -2.6543    -0.0563    -0.258
H    -2.5538    -0.2738    -1.3456
H    -2.801    1.0371    -0.1118
H    -3.559    -0.5793    0.1271
C    -1.4201    -0.5466    0.5018
H    -1.5106    -0.2384    1.5694
H    -1.4555    -1.6586    0.4638
C    -0.0662    -0.0617    -0.0723
H    0.0043    -0.3982    -1.1339
C    1.1401    -0.6578    0.6934
H    1.0794    -0.3792    1.7714
H    2.0805    -0.2193    0.284
C    1.2872    -2.1769    0.5857
H    1.2594    -2.4974    -0.4804
H    2.2635    -2.4857    1.0239
H    0.4802    -2.6963    1.1488
C    0.0421    1.4741    -0.0745
H    -0.724    1.9237    -0.7448
H    -0.0958    1.8785    0.9545
H    1.0387    1.7969    -0.4536





