%mem=15GB
%nprocshared=6
#p B3LYP/6-31G(d) opt=tight int=ultrafine

using B3LYP/6-31G(d) to do opt and freq calc.

0 1
C	1.642402	0.957711	-0.000744
H	1.644109	1.604175	0.881790
H	1.644160	1.602727	-0.884338
H	2.586666	0.404388	-0.000260
C	0.431767	-0.001555	0.000000
C	-0.862956	0.856148	-0.000468
H	-0.850932	1.524394	-0.883329
H	-0.850936	1.525319	0.881692
C	-2.157493	0.048047	-0.000041
H	-2.232443	-0.595499	0.883877
H	-3.031451	0.708938	-0.000293
H	-2.232541	-0.596294	-0.883369
C	0.494640	-0.887408	-1.258080
H	-0.325599	-1.612071	-1.277539
H	0.426659	-0.289725	-2.171997
H	1.430763	-1.452286	-1.301758
C	0.494818	-0.885689	1.259280
H	1.430711	-1.450918	1.303321
H	0.427505	-0.286711	2.172400
H	-0.325737	-1.609958	1.280117





