%mem=15GB
%nprocshared=6
#p M062X/def2TZVP

using B3LYP/6-31G(d) to do opt and freq calc.

0 2
C	-2.230588	-0.944180	-0.053834
H	-2.042268	-1.932044	0.385737
H	-2.297797	-1.063731	-1.141796
H	-3.203697	-0.591609	0.305149
C	-1.101015	0.049072	0.321328
H	-1.075671	0.102895	1.421427
C	0.266226	-0.478829	-0.160181
H	0.269760	-0.500841	-1.261127
H	0.380253	-1.523156	0.164820
C	1.465735	0.337356	0.337588
H	1.459792	0.350862	1.437038
H	1.349501	1.382698	0.021859
C	2.809455	-0.205401	-0.159063
H	2.859804	-0.197990	-1.255042
H	3.646801	0.394221	0.216078
H	2.967158	-1.239996	0.170603
C	-1.396739	1.416930	-0.210489
H	-1.113225	1.685078	-1.225643
H	-2.078854	2.083927	0.308793





