%mem=15GB
%nprocshared=6
#p B3LYP/6-31G(d) opt=tight int=ultrafine

using B3LYP/6-31G(d) to do opt and freq calc.

0 1
C	2.432322	-0.432462	-0.045853
H	2.735891	-0.406062	1.006572
H	2.694374	0.536178	-0.486780
H	3.040375	-1.195133	-0.544627
C	0.942456	-0.732442	-0.195502
H	0.679571	-0.796280	-1.268755
H	0.725428	-1.733188	0.226374
C	0.054188	0.322166	0.498109
H	0.491798	0.533143	1.507576
C	-1.375061	-0.217463	0.732392
H	-1.960948	0.550669	1.275150
H	-1.323987	-1.089952	1.413139
C	-2.119939	-0.611806	-0.540274
H	-1.615912	-1.428582	-1.068455
H	-3.138377	-0.945609	-0.313238
H	-2.196593	0.230304	-1.237758
C	0.030972	1.638714	-0.287567
H	1.038094	2.057216	-0.387563
H	-0.366588	1.498333	-1.298577
H	-0.592762	2.388712	0.209110





