%mem=15GB
%nprocshared=6
#p PM6 opt 

using PM6 to do opt and freq calc.

0 1
C    1.7235    2.1    0.7423
H    1.9701    1.2884    0.022
H    1.7902    1.7032    1.7808
H    2.4765    2.9116    0.6228
C    0.3271    2.6597    0.4729
H    0.1861    3.5499    1.1291
H    0.2685    3.0065    -0.5848
C    -0.8149    1.6731    0.7601
H    -1.7667    2.2476    0.6936
H    -0.7193    1.2906    1.803
C    -0.8793    0.491    -0.2209
H    0.0725    -0.0835    -0.1544
H    -0.9749    0.8735    -1.2638
C    -2.0213    -0.4956    0.0663
H    -1.9628    -0.8423    1.1241
H    -1.8803    -1.3858    -0.5898
C    -3.4177    0.0641    -0.2031
H    -3.4843    0.4608    -1.2417
H    -4.1708    -0.7475    -0.0836
H    -3.6643    0.8757    0.5171





