%mem=15GB
%nprocshared=6
#p M062X/def2TZVP

using B3LYP/6-31G(d) to do opt and freq calc.

0 2
C	1.464545	2.797580	0.000000
H	0.961375	3.207117	0.884657
H	0.961375	3.207117	-0.884657
H	2.494714	3.171852	0.000000
C	1.425107	1.265807	0.000000
H	1.966289	0.885568	-0.878049
H	1.966289	0.885568	0.878049
C	0.000000	0.697534	0.000000
H	-0.542076	1.078218	-0.878665
H	-0.542076	1.078218	0.878665
C	-0.046863	-0.835786	0.000000
H	0.487828	-1.222196	0.878758
H	0.487828	-1.222196	-0.878758
C	-1.492660	-1.398210	0.000000
H	-2.015771	-0.998957	-0.881018
H	-2.015771	-0.998957	0.881018
C	-1.556724	-2.888793	0.000000
H	-1.485214	-3.450071	0.927159
H	-1.485214	-3.450071	-0.927159





